BindingDB_50134036_mol_1

Vconf v2.0 Academic SN VC001-00000579
 33 34  0  0  0  0  0  0  0  0999 V2000
    3.6460  -19.4950    0.1880 C   0  0  0  0  0  0  0  0  0  0  0
    3.5330  -20.8920    0.2130 C   0  0  0  0  0  0  0  0  0  0  0
    4.6420  -21.6740    0.5570 C   0  0  0  0  0  0  0  0  0  0  0
    5.8590  -21.0550    0.8720 C   0  0  0  0  0  0  0  0  0  0  0
    5.9940  -19.6450    0.8510 C   0  0  0  0  0  0  0  0  0  0  0
    4.8650  -18.8490    0.5040 C   0  0  0  0  0  0  0  0  0  0  0
    4.8930  -17.4300    0.4550 C   0  0  0  0  0  0  0  0  0  0  0
    5.9160  -16.7580    0.7150 O   0  0  0  0  0  0  0  0  0  0  0
    3.7970  -16.7120    0.1200 O   0  0  0  0  0  0  0  0  0  0  0
    7.1850  -19.0460    1.1640 N   0  0  0  0  0  0  0  0  0  0  0
    8.3400  -19.6680    1.5110 C   0  0  0  0  0  0  0  0  0  0  0
    9.2120  -20.0760    0.4870 C   0  0  0  0  0  0  0  0  0  0  0
   10.4230  -20.7040    0.8040 C   0  0  0  0  0  0  0  0  0  0  0
   10.7590  -20.9300    2.1460 C   0  0  0  0  0  0  0  0  0  0  0
    9.8970  -20.5310    3.1890 C   0  0  0  0  0  0  0  0  0  0  0
    8.6770  -19.8730    2.8720 C   0  0  0  0  0  0  0  0  0  0  0
    7.7200  -19.3730    3.8840 C   0  0  0  0  0  0  0  0  0  0  0
   10.3540  -20.8560    4.5570 C   0  0  0  0  0  0  0  0  0  0  0
    2.8200  -18.9490   -0.0670 H   0  0  0  0  0  0  0  0  0  0  0
    2.6440  -21.3380   -0.0170 H   0  0  0  0  0  0  0  0  0  0  0
    4.5640  -22.6910    0.5770 H   0  0  0  0  0  0  0  0  0  0  0
    6.6530  -21.6460    1.1200 H   0  0  0  0  0  0  0  0  0  0  0
    3.9480  -15.7440    0.1180 H   0  0  0  0  0  0  0  0  0  0  0
    7.2150  -18.0780    1.1470 H   0  0  0  0  0  0  0  0  0  0  0
    8.9670  -19.9150   -0.4910 H   0  0  0  0  0  0  0  0  0  0  0
   11.0560  -21.0010    0.0610 H   0  0  0  0  0  0  0  0  0  0  0
   11.6400  -21.3970    2.3650 H   0  0  0  0  0  0  0  0  0  0  0
    8.0810  -19.4630    4.9030 H   0  0  0  0  0  0  0  0  0  0  0
    7.5180  -18.3170    3.7000 H   0  0  0  0  0  0  0  0  0  0  0
    6.7840  -19.9290    3.8000 H   0  0  0  0  0  0  0  0  0  0  0
    9.6200  -20.6280    5.3220 H   0  0  0  0  0  0  0  0  0  0  0
   10.5720  -21.9230    4.6200 H   0  0  0  0  0  0  0  0  0  0  0
   11.2660  -20.2980    4.7750 H   0  0  0  0  0  0  0  0  0  0  0
  1  2  1  0  0  0  0
  1  6  2  0  0  0  0
  1 19  1  0  0  0  0
  2  3  2  0  0  0  0
  2 20  1  0  0  0  0
  3  4  1  0  0  0  0
  3 21  1  0  0  0  0
  4  5  2  0  0  0  0
  4 22  1  0  0  0  0
  5  6  1  0  0  0  0
  5 10  1  0  0  0  0
  6  7  1  0  0  0  0
  7  8  2  0  0  0  0
  7  9  1  0  0  0  0
  9 23  1  0  0  0  0
 10 11  1  0  0  0  0
 10 24  1  0  0  0  0
 11 12  2  0  0  0  0
 11 16  1  0  0  0  0
 12 13  1  0  0  0  0
 12 25  1  0  0  0  0
 13 14  2  0  0  0  0
 13 26  1  0  0  0  0
 14 15  1  0  0  0  0
 14 27  1  0  0  0  0
 15 16  2  0  0  0  0
 15 18  1  0  0  0  0
 16 17  1  0  0  0  0
 17 28  1  0  0  0  0
 17 29  1  0  0  0  0
 17 30  1  0  0  0  0
 18 31  1  0  0  0  0
 18 32  1  0  0  0  0
 18 33  1  0  0  0  0
M  END
> <From>
www.bindingDB.org

> <BindingDB Reactant_set_id>
50967557

> <Ligand InChI>
InChI=1S/C15H15NO2/c1-10-6-5-9-13(11(10)2)16-14-8-4-3-7-12(14)15(17)18/h3-9,16H,1-2H3,(H,17,18)

> <Ligand InChI Key>
HYYBABOKPJLUIN-UHFFFAOYSA-N

> <BindingDB MonomerID>
50134036

> <BindingDB Ligand Name>
2-(2,3-Dimethyl-phenylamino)-benzoic acid::2-(2,3-Dimethyl-phenylamino)-benzoic acid(Mefenamic acid)::2-(2,3-dimethylphenylamino)benzoic acid::CHEMBL686::CI-473::CN-35355::INF-3355::MEFENAMIC ACID::Ponstel::cid_4044::mefanamic acid

> <Target Name Assigned by Curator or DataSource>
Aldo-keto reductase family 1 member C2

> <Target Source Organism According to Curator or DataSource>
Homo sapiens

> <Ki (nM)>
 220

> <IC50 (nM)>


> <Kd (nM)>


> <EC50 (nM)>


> <kon (M-1-s-1)>


> <koff (s-1)>


> <pH>


> <Temp C>


> <Curation/DataSource>
ChEMBL

> <Article DOI>
10.1021/jm300841n

> <PMID>
22881866

> <PubChem AID>


> <Patent Number>


> <Authors>
Brozic, P; Turk, S; Adeniji, AO; Konc, J; Janezic, D; Penning, TM; Lanisnik Rizner, T; Gobec, S

> <Institution>
University of Ljubljana

> <Link to Ligand in BindingDB>
http://www.bindingdb.org/bind/chemsearch/marvin/MolStructure.jsp?monomerid=50134036

> <Link to Ligand-Target Pair in BindingDB>
http://www.bindingdb.org/jsp/dbsearch/PrimarySearch_ki.jsp?energyterm=kJ/mole&tag=pol&polymerid=3022&target=Aldo-keto+reductase+family+1+member+C2&column=ki&startPg=0&Increment=50&submit=Search

> <Link to Ligand-Target Pair in BindingDB>
http://www.bindingdb.org/jsp/dbsearch/PrimarySearch_ki.jsp?energyterm=kJ/mole&tag=r21&monomerid=50134036&enzyme=Aldo-keto+reductase+family+1+member+C2&column=ki&startPg=0&Increment=50&submit=Search

> <Ligand HET ID in PDB>
ID8

> <PDB ID(s) for Ligand-Target Complex>
2XN3,3R43,4G2Z,4JQA,5IKR

> <PubChem CID>
4044

> <PubChem SID>
104024741

> <ChEBI ID of Ligand>


> <ChEMBL ID of Ligand>
CHEMBL686

> <DrugBank ID of Ligand>
DB00784

> <IUPHAR_GRAC ID of Ligand>
2593

> <KEGG ID of Ligand>
C02168

> <ZINC ID of Ligand>
ZINC00020241

> <Number of Protein Chains in Target (>1 implies a multichain complex)>
1

> <BindingDB Target Chain Sequence>
MDSKYQCVKLNDGHFMPVLGFGTYAPAEVPKSKALEAVKLAIEAGFHHIDSAHVYNNEEQVGLAIRSKIADGSVKREDIFYTSKLWSNSHRPELVRPALERSLKNLQLDYVDLYLIHFPVSVKPGEEVIPKDENGKILFDTVDLCATWEAMEKCKDAGLAKSIGVSNFNHRLLEMILNKPGLKYKPVCNQVECHPYFNQRKLLDFCKSKDIVLVAYSALGSHREEPWVDPNSPVLLEDPVLCALAKKHKRTPALIALRYQLQRGVVVLAKSYNEQRIRQNVQVFEFQLTSEEMKAIDGLNRNVRYLTLDIFAGPPNYPFSDEY

> <PDB ID(s) of Target Chain>
1IHI,1J96,1XJB,2HDJ,4JQ1,4JQ2,4JQ3,4JQ4,4JQA,4JTQ,4JTR,4L1W,4XO6,4XO7,6F2U

> <UniProt (SwissProt) Recommended Name of Target Chain>
Aldo-keto reductase family 1 member C2

> <UniProt (SwissProt) Entry Name of Target Chain>
AK1C2_HUMAN

> <UniProt (SwissProt) Primary ID of Target Chain>
P52895

> <UniProt (SwissProt) Secondary ID(s) of Target Chain>
A8K2N9,B4DKR9,Q14133,Q5SR16,Q7M4N1,Q96A71

> <UniProt (SwissProt) Alternative ID(s) of Target Chain>


> <UniProt (TrEMBL) Submitted Name of Target Chain>


> <UniProt (TrEMBL) Entry Name of Target Chain>


> <UniProt (TrEMBL) Primary ID of Target Chain>


> <UniProt (TrEMBL) Secondary ID(s) of Target Chain>


> <UniProt (TrEMBL) Alternative ID(s) of Target Chain>


$$$$
FLF

Vconf v2.0 Academic SN VC001-00000579
 30 31  0  0  0  0  0  0  0  0999 V2000
   -1.2200    3.5580    0.8810 C   0  0  0  0  0  0  0  0  0  0  0
   -2.5410    3.1680    0.6060 C   0  0  0  0  0  0  0  0  0  0  0
   -2.9440    1.8190    0.7300 C   0  0  0  0  0  0  0  0  0  0  0
   -1.9790    0.8680    1.1350 C   0  0  0  0  0  0  0  0  0  0  0
   -0.6500    1.2510    1.4030 C   0  0  0  0  0  0  0  0  0  0  0
   -0.2760    2.6000    1.2830 C   0  0  0  0  0  0  0  0  0  0  0
    0.2610    0.3300    1.8010 N   0  0  0  0  0  0  0  0  0  0  0
    1.0020   -0.4900    0.9920 C   0  0  0  0  0  0  0  0  0  0  0
    0.8770   -0.4320   -0.4180 C   0  0  0  0  0  0  0  0  0  0  0
    1.6370   -1.2650   -1.2510 C   0  0  0  0  0  0  0  0  0  0  0
    2.5390   -2.1750   -0.6870 C   0  0  0  0  0  0  0  0  0  0  0
    2.6780   -2.2480    0.7060 C   0  0  0  0  0  0  0  0  0  0  0
    1.9210   -1.4150    1.5660 C   0  0  0  0  0  0  0  0  0  0  0
    2.1240   -1.5530    2.9650 C   0  0  0  0  0  0  0  0  0  0  0
    1.5100   -0.8700    3.8140 O   0  0  0  0  0  0  0  0  0  0  0
    3.0090   -2.4440    3.4660 O   0  0  0  0  0  0  0  0  0  0  0
   -4.3530    1.4450    0.4360 C   0  0  0  0  0  0  0  0  0  0  0
   -4.6240    0.1050    0.5930 F   0  0  0  0  0  0  0  0  0  0  0
   -5.2070    2.1270    1.2700 F   0  0  0  0  0  0  0  0  0  0  0
   -4.6660    1.7670   -0.8630 F   0  0  0  0  0  0  0  0  0  0  0
   -0.9460    4.5360    0.7880 H   0  0  0  0  0  0  0  0  0  0  0
   -3.2190    3.8740    0.3160 H   0  0  0  0  0  0  0  0  0  0  0
   -2.2400   -0.1140    1.2350 H   0  0  0  0  0  0  0  0  0  0  0
    0.6830    2.8860    1.4840 H   0  0  0  0  0  0  0  0  0  0  0
    0.4010    0.2580    2.7570 H   0  0  0  0  0  0  0  0  0  0  0
    0.2270    0.2230   -0.8520 H   0  0  0  0  0  0  0  0  0  0  0
    1.5340   -1.2070   -2.2640 H   0  0  0  0  0  0  0  0  0  0  0
    3.0950   -2.7830   -1.2900 H   0  0  0  0  0  0  0  0  0  0  0
    3.3440   -2.9210    1.0900 H   0  0  0  0  0  0  0  0  0  0  0
    3.0570   -2.4410    4.4440 H   0  0  0  0  0  0  0  0  0  0  0
  1  2  2  0  0  0  0
  1  6  1  0  0  0  0
  1 21  1  0  0  0  0
  2  3  1  0  0  0  0
  2 22  1  0  0  0  0
  3  4  2  0  0  0  0
  3 17  1  0  0  0  0
  4  5  1  0  0  0  0
  4 23  1  0  0  0  0
  5  6  2  0  0  0  0
  5  7  1  0  0  0  0
  6 24  1  0  0  0  0
  7  8  1  0  0  0  0
  7 25  1  0  0  0  0
  8  9  2  0  0  0  0
  8 13  1  0  0  0  0
  9 10  1  0  0  0  0
  9 26  1  0  0  0  0
 10 11  2  0  0  0  0
 10 27  1  0  0  0  0
 11 12  1  0  0  0  0
 11 28  1  0  0  0  0
 12 13  2  0  0  0  0
 12 29  1  0  0  0  0
 13 14  1  0  0  0  0
 14 15  2  0  0  0  0
 14 16  1  0  0  0  0
 16 30  1  0  0  0  0
 17 18  1  0  0  0  0
 17 19  1  0  0  0  0
 17 20  1  0  0  0  0
M  END
> <From>
www.bindingDB.org

> <BindingDB Reactant_set_id>
50967398

> <Ligand InChI>
InChI=1S/C14H10F3NO2/c15-14(16,17)9-4-3-5-10(8-9)18-12-7-2-1-6-11(12)13(19)20/h1-8,18H,(H,19,20)

> <Ligand InChI Key>
LPEPZBJOKDYZAD-UHFFFAOYSA-N

> <BindingDB MonomerID>
17636

> <BindingDB Ligand Name>
2-{[3-(trifluoromethyl)phenyl]amino}benzoic acid::Arlef::CHEMBL23588::Flufenamic acid::Nichisedan::US9271961, Flufenamic Acid

> <Target Name Assigned by Curator or DataSource>
Aldo-keto reductase family 1 member C2

> <Target Source Organism According to Curator or DataSource>
Homo sapiens

> <Ki (nM)>


> <IC50 (nM)>
 3140

> <Kd (nM)>


> <EC50 (nM)>


> <kon (M-1-s-1)>


> <koff (s-1)>


> <pH>


> <Temp C>


> <Curation/DataSource>
ChEMBL

> <Article DOI>
10.1021/jm3007867

> <PMID>
22877157

> <PubChem AID>


> <Patent Number>


> <Authors>
Jamieson, SM; Brooke, DG; Heinrich, D; Atwell, GJ; Silva, S; Hamilton, EJ; Turnbull, AP; Rigoreau, LJ; Trivier, E; Soudy, C; Samlal, SS; Owen, PJ; Schroeder, E; Raynham, T; Flanagan, JU; Denny, WA

> <Institution>
University of Auckland

> <Link to Ligand in BindingDB>
http://www.bindingdb.org/bind/chemsearch/marvin/MolStructure.jsp?monomerid=17636

> <Link to Ligand-Target Pair in BindingDB>
http://www.bindingdb.org/jsp/dbsearch/PrimarySearch_ki.jsp?energyterm=kJ/mole&tag=pol&polymerid=3022&target=Aldo-keto+reductase+family+1+member+C2&column=ki&startPg=0&Increment=50&submit=Search

> <Link to Ligand-Target Pair in BindingDB>
http://www.bindingdb.org/jsp/dbsearch/PrimarySearch_ki.jsp?energyterm=kJ/mole&tag=r21&monomerid=17636&enzyme=Aldo-keto+reductase+family+1+member+C2&column=ki&startPg=0&Increment=50&submit=Search

> <Ligand HET ID in PDB>
FLF

> <PDB ID(s) for Ligand-Target Complex>
1BM7,1S2C,2PIX

> <PubChem CID>
3371

> <PubChem SID>
46517801

> <ChEBI ID of Ligand>
42638

> <ChEMBL ID of Ligand>
CHEMBL23588

> <DrugBank ID of Ligand>
DB02266

> <IUPHAR_GRAC ID of Ligand>
2447

> <KEGG ID of Ligand>
C13038

> <ZINC ID of Ligand>
ZINC00086535

> <Number of Protein Chains in Target (>1 implies a multichain complex)>
1

> <BindingDB Target Chain Sequence>
MDSKYQCVKLNDGHFMPVLGFGTYAPAEVPKSKALEAVKLAIEAGFHHIDSAHVYNNEEQVGLAIRSKIADGSVKREDIFYTSKLWSNSHRPELVRPALERSLKNLQLDYVDLYLIHFPVSVKPGEEVIPKDENGKILFDTVDLCATWEAMEKCKDAGLAKSIGVSNFNHRLLEMILNKPGLKYKPVCNQVECHPYFNQRKLLDFCKSKDIVLVAYSALGSHREEPWVDPNSPVLLEDPVLCALAKKHKRTPALIALRYQLQRGVVVLAKSYNEQRIRQNVQVFEFQLTSEEMKAIDGLNRNVRYLTLDIFAGPPNYPFSDEY

> <PDB ID(s) of Target Chain>
1IHI,1J96,1XJB,2HDJ,4JQ1,4JQ2,4JQ3,4JQ4,4JQA,4JTQ,4JTR,4L1W,4XO6,4XO7,6F2U

> <UniProt (SwissProt) Recommended Name of Target Chain>
Aldo-keto reductase family 1 member C2

> <UniProt (SwissProt) Entry Name of Target Chain>
AK1C2_HUMAN

> <UniProt (SwissProt) Primary ID of Target Chain>
P52895

> <UniProt (SwissProt) Secondary ID(s) of Target Chain>
A8K2N9,B4DKR9,Q14133,Q5SR16,Q7M4N1,Q96A71

> <UniProt (SwissProt) Alternative ID(s) of Target Chain>


> <UniProt (TrEMBL) Submitted Name of Target Chain>


> <UniProt (TrEMBL) Entry Name of Target Chain>


> <UniProt (TrEMBL) Primary ID of Target Chain>


> <UniProt (TrEMBL) Secondary ID(s) of Target Chain>


> <UniProt (TrEMBL) Alternative ID(s) of Target Chain>


$$$$
Meclofenamic

Vconf v2.0 Academic SN VC001-00000579
 30 31  0  0  0  0  0  0  0  0999 V2000
   -0.6600    2.3530    0.5650 C   0  0  0  0  0  0  0  0  0  0  0
   -1.8380    1.5530    0.5390 C   0  0  0  0  0  0  0  0  0  0  0
   -1.7410    0.1780    0.8660 C   0  0  0  0  0  0  0  0  0  0  0
   -0.5120   -0.4030    1.2110 C   0  0  0  0  0  0  0  0  0  0  0
    0.6450    0.3840    1.2360 C   0  0  0  0  0  0  0  0  0  0  0
    0.5700    1.7470    0.9160 C   0  0  0  0  0  0  0  0  0  0  0
   -0.6480    3.7390    0.2570 C   0  0  0  0  0  0  0  0  0  0  0
   -1.6760    4.3760   -0.0630 O   0  0  0  0  0  0  0  0  0  0  0
    0.4960    4.4610    0.2940 O   0  0  0  0  0  0  0  0  0  0  0
   -3.0420    2.1140    0.2010 N   0  0  0  0  0  0  0  0  0  0  0
   -4.2480    1.4810    0.1410 C   0  0  0  0  0  0  0  0  0  0  0
   -5.0950    1.5030    1.2730 C   0  0  0  0  0  0  0  0  0  0  0
   -6.3430    0.8590    1.2250 C   0  0  0  0  0  0  0  0  0  0  0
   -6.7510    0.2020    0.0570 C   0  0  0  0  0  0  0  0  0  0  0
   -5.9310    0.1800   -1.0880 C   0  0  0  0  0  0  0  0  0  0  0
   -4.6700    0.8310   -1.0480 C   0  0  0  0  0  0  0  0  0  0  0
   -4.6570    2.2880    2.7120 Cl  0  0  0  0  0  0  0  0  0  0  0
   -3.6490    0.8510   -2.4090 Cl  0  0  0  0  0  0  0  0  0  0  0
   -6.4740   -0.5390   -2.2610 C   0  0  0  0  0  0  0  0  0  0  0
   -2.5710   -0.4150    0.8540 H   0  0  0  0  0  0  0  0  0  0  0
   -0.4630   -1.3950    1.4430 H   0  0  0  0  0  0  0  0  0  0  0
    1.5420   -0.0340    1.4860 H   0  0  0  0  0  0  0  0  0  0  0
    1.4310    2.2970    0.9420 H   0  0  0  0  0  0  0  0  0  0  0
    0.3720    5.4040    0.0620 H   0  0  0  0  0  0  0  0  0  0  0
   -3.0500    3.0590   -0.0090 H   0  0  0  0  0  0  0  0  0  0  0
   -6.9630    0.8630    2.0360 H   0  0  0  0  0  0  0  0  0  0  0
   -7.6600   -0.2630    0.0400 H   0  0  0  0  0  0  0  0  0  0  0
   -5.8040   -0.5260   -3.1180 H   0  0  0  0  0  0  0  0  0  0  0
   -6.6590   -1.5810   -1.9930 H   0  0  0  0  0  0  0  0  0  0  0
   -7.4180   -0.0810   -2.5620 H   0  0  0  0  0  0  0  0  0  0  0
  1  2  2  0  0  0  0
  1  6  1  0  0  0  0
  1  7  1  0  0  0  0
  2  3  1  0  0  0  0
  2 10  1  0  0  0  0
  3  4  2  0  0  0  0
  3 20  1  0  0  0  0
  4  5  1  0  0  0  0
  4 21  1  0  0  0  0
  5  6  2  0  0  0  0
  5 22  1  0  0  0  0
  6 23  1  0  0  0  0
  7  8  2  0  0  0  0
  7  9  1  0  0  0  0
  9 24  1  0  0  0  0
 10 11  1  0  0  0  0
 10 25  1  0  0  0  0
 11 12  1  0  0  0  0
 11 16  2  0  0  0  0
 12 13  2  0  0  0  0
 12 17  1  0  0  0  0
 13 14  1  0  0  0  0
 13 26  1  0  0  0  0
 14 15  2  0  0  0  0
 14 27  1  0  0  0  0
 15 16  1  0  0  0  0
 15 19  1  0  0  0  0
 16 18  1  0  0  0  0
 19 28  1  0  0  0  0
 19 29  1  0  0  0  0
 19 30  1  0  0  0  0
M  END
> <From>
www.bindingDB.org

> <BindingDB Reactant_set_id>
50967393

> <Ligand InChI>
InChI=1S/C14H11Cl2NO2/c1-8-6-7-10(15)13(12(8)16)17-11-5-3-2-4-9(11)14(18)19/h2-7,17H,1H3,(H,18,19)

> <Ligand InChI Key>
SBDNJUWAMKYJOX-UHFFFAOYSA-N

> <BindingDB MonomerID>
22971

> <BindingDB Ligand Name>
2-[(2,6-dichloro-3-methylphenyl)amino]benzoic acid::CHEMBL509::Meclofenamate::Meclofenamic acid

> <Target Name Assigned by Curator or DataSource>
Aldo-keto reductase family 1 member C2

> <Target Source Organism According to Curator or DataSource>
Homo sapiens

> <Ki (nM)>


> <IC50 (nM)>
 8740

> <Kd (nM)>


> <EC50 (nM)>


> <kon (M-1-s-1)>


> <koff (s-1)>


> <pH>


> <Temp C>


> <Curation/DataSource>
ChEMBL

> <Article DOI>
10.1021/jm3007867

> <PMID>
22877157

> <PubChem AID>


> <Patent Number>


> <Authors>
Jamieson, SM; Brooke, DG; Heinrich, D; Atwell, GJ; Silva, S; Hamilton, EJ; Turnbull, AP; Rigoreau, LJ; Trivier, E; Soudy, C; Samlal, SS; Owen, PJ; Schroeder, E; Raynham, T; Flanagan, JU; Denny, WA

> <Institution>
University of Auckland

> <Link to Ligand in BindingDB>
http://www.bindingdb.org/bind/chemsearch/marvin/MolStructure.jsp?monomerid=22971

> <Link to Ligand-Target Pair in BindingDB>
http://www.bindingdb.org/jsp/dbsearch/PrimarySearch_ki.jsp?energyterm=kJ/mole&tag=pol&polymerid=3022&target=Aldo-keto+reductase+family+1+member+C2&column=ki&startPg=0&Increment=50&submit=Search

> <Link to Ligand-Target Pair in BindingDB>
http://www.bindingdb.org/jsp/dbsearch/PrimarySearch_ki.jsp?energyterm=kJ/mole&tag=r21&monomerid=22971&enzyme=Aldo-keto+reductase+family+1+member+C2&column=ki&startPg=0&Increment=50&submit=Search

> <Ligand HET ID in PDB>
JMS

> <PDB ID(s) for Ligand-Target Complex>
3R6I,4N6P,4QKN,5IKQ

> <PubChem CID>
4037

> <PubChem SID>
49846785

> <ChEBI ID of Ligand>


> <ChEMBL ID of Ligand>
CHEMBL509

> <DrugBank ID of Ligand>
DB00939

> <IUPHAR_GRAC ID of Ligand>
7219

> <KEGG ID of Ligand>
C07117

> <ZINC ID of Ligand>
ZINC00001655

> <Number of Protein Chains in Target (>1 implies a multichain complex)>
1

> <BindingDB Target Chain Sequence>
MDSKYQCVKLNDGHFMPVLGFGTYAPAEVPKSKALEAVKLAIEAGFHHIDSAHVYNNEEQVGLAIRSKIADGSVKREDIFYTSKLWSNSHRPELVRPALERSLKNLQLDYVDLYLIHFPVSVKPGEEVIPKDENGKILFDTVDLCATWEAMEKCKDAGLAKSIGVSNFNHRLLEMILNKPGLKYKPVCNQVECHPYFNQRKLLDFCKSKDIVLVAYSALGSHREEPWVDPNSPVLLEDPVLCALAKKHKRTPALIALRYQLQRGVVVLAKSYNEQRIRQNVQVFEFQLTSEEMKAIDGLNRNVRYLTLDIFAGPPNYPFSDEY

> <PDB ID(s) of Target Chain>
1IHI,1J96,1XJB,2HDJ,4JQ1,4JQ2,4JQ3,4JQ4,4JQA,4JTQ,4JTR,4L1W,4XO6,4XO7,6F2U

> <UniProt (SwissProt) Recommended Name of Target Chain>
Aldo-keto reductase family 1 member C2

> <UniProt (SwissProt) Entry Name of Target Chain>
AK1C2_HUMAN

> <UniProt (SwissProt) Primary ID of Target Chain>
P52895

> <UniProt (SwissProt) Secondary ID(s) of Target Chain>
A8K2N9,B4DKR9,Q14133,Q5SR16,Q7M4N1,Q96A71

> <UniProt (SwissProt) Alternative ID(s) of Target Chain>


> <UniProt (TrEMBL) Submitted Name of Target Chain>


> <UniProt (TrEMBL) Entry Name of Target Chain>


> <UniProt (TrEMBL) Primary ID of Target Chain>


> <UniProt (TrEMBL) Secondary ID(s) of Target Chain>


> <UniProt (TrEMBL) Alternative ID(s) of Target Chain>


$$$$
28

Vconf v2.0 Academic SN VC001-00000579
 29 30  0  0  0  0  0  0  0  0999 V2000
   -1.7240    3.8860    0.7560 C   0  0  0  0  0  0  0  0  0  0  0
   -2.9240    3.2500    1.1560 C   0  0  0  0  0  0  0  0  0  0  0
   -3.1240    1.8780    0.9540 C   0  0  0  0  0  0  0  0  0  0  0
   -2.1160    1.1100    0.3610 C   0  0  0  0  0  0  0  0  0  0  0
   -0.7070    3.1110    0.1200 C   0  0  0  0  0  0  0  0  0  0  0
   -0.9200    1.7200   -0.0410 C   0  0  0  0  0  0  0  0  0  0  0
    1.4850    3.3620   -1.0770 C   0  0  0  0  0  0  0  0  0  0  0
    2.6400    4.1640   -0.9950 C   0  0  0  0  0  0  0  0  0  0  0
    1.4660    2.3240   -2.0360 C   0  0  0  0  0  0  0  0  0  0  0
    3.7600    3.9100   -1.8030 C   0  0  0  0  0  0  0  0  0  0  0
    3.7560    2.8540   -2.7400 C   0  0  0  0  0  0  0  0  0  0  0
    0.4630    3.7280   -0.2470 N   0  0  0  0  0  0  0  0  0  0  0
   -1.6140    5.2820    0.9990 C   0  0  0  0  0  0  0  0  0  0  0
   -0.6110    5.9570    0.6770 O   0  0  0  0  0  0  0  0  0  0  0
   -2.6060    5.9760    1.6030 O   0  0  0  0  0  0  0  0  0  0  0
    2.5860    2.0700   -2.8450 C   0  0  0  0  0  0  0  0  0  0  0
    4.8460    2.6060   -3.5290 N   0  3  0  0  0  0  0  0  0  0  0
    4.8560    1.7150   -4.3360 O   0  0  0  0  0  0  0  0  0  0  0
    5.8500    3.2680   -3.4540 O   0  5  0  0  0  0  0  0  0  0  0
   -3.6720    3.7850    1.6010 H   0  0  0  0  0  0  0  0  0  0  0
   -3.9950    1.4370    1.2510 H   0  0  0  0  0  0  0  0  0  0  0
   -2.2450    0.1050    0.2360 H   0  0  0  0  0  0  0  0  0  0  0
   -0.1870    1.1190   -0.4070 H   0  0  0  0  0  0  0  0  0  0  0
    2.6740    4.9380   -0.3300 H   0  0  0  0  0  0  0  0  0  0  0
    0.6290    1.7680   -2.1900 H   0  0  0  0  0  0  0  0  0  0  0
    4.5860    4.5030   -1.7080 H   0  0  0  0  0  0  0  0  0  0  0
    0.5940    4.5990    0.1550 H   0  0  0  0  0  0  0  0  0  0  0
   -2.4070    6.9290    1.7120 H   0  0  0  0  0  0  0  0  0  0  0
    2.5420    1.3130   -3.5290 H   0  0  0  0  0  0  0  0  0  0  0
  1  2  2  0  0  0  0
  1  5  1  0  0  0  0
  1 13  1  0  0  0  0
  2  3  1  0  0  0  0
  2 20  1  0  0  0  0
  3  4  2  0  0  0  0
  3 21  1  0  0  0  0
  4  6  1  0  0  0  0
  4 22  1  0  0  0  0
  5  6  2  0  0  0  0
  5 12  1  0  0  0  0
  6 23  1  0  0  0  0
  7  8  1  0  0  0  0
  7  9  2  0  0  0  0
  7 12  1  0  0  0  0
  8 10  2  0  0  0  0
  8 24  1  0  0  0  0
  9 16  1  0  0  0  0
  9 25  1  0  0  0  0
 10 11  1  0  0  0  0
 10 26  1  0  0  0  0
 11 16  2  0  0  0  0
 11 17  1  0  0  0  0
 12 27  1  0  0  0  0
 13 14  2  0  0  0  0
 13 15  1  0  0  0  0
 15 28  1  0  0  0  0
 16 29  1  0  0  0  0
 17 18  2  0  0  0  0
 17 19  1  0  0  0  0
M  CHG  1  17   1
M  CHG  1  19  -1
M  END
> <From>
www.bindingDB.org

> <BindingDB Reactant_set_id>
50940522

> <Ligand InChI>
InChI=1S/C13H10N2O4/c16-13(17)11-3-1-2-4-12(11)14-9-5-7-10(8-6-9)15(18)19/h1-8,14H,(H,16,17)

> <Ligand InChI Key>
ZZPQUGLIFJZPGU-UHFFFAOYSA-N

> <BindingDB MonomerID>
35901

> <BindingDB Ligand Name>
cid_201986::flufenamic acid analogue, 28

> <Target Name Assigned by Curator or DataSource>
Aldo-keto reductase family 1 member C2

> <Target Source Organism According to Curator or DataSource>
Homo sapiens

> <Ki (nM)>


> <IC50 (nM)>
 280

> <Kd (nM)>


> <EC50 (nM)>


> <kon (M-1-s-1)>


> <koff (s-1)>


> <pH>


> <Temp C>


> <Curation/DataSource>
ChEMBL

> <Article DOI>
10.1021/jm201547v

> <PMID>
22263837

> <PubChem AID>


> <Patent Number>


> <Authors>
Adeniji, AO; Twenter, BM; Byrns, MC; Jin, Y; Chen, M; Winkler, JD; Penning, TM

> <Institution>
University of Pennsylvania

> <Link to Ligand in BindingDB>
http://www.bindingdb.org/bind/chemsearch/marvin/MolStructure.jsp?monomerid=35901

> <Link to Ligand-Target Pair in BindingDB>
http://www.bindingdb.org/jsp/dbsearch/PrimarySearch_ki.jsp?energyterm=kJ/mole&tag=pol&polymerid=3022&target=Aldo-keto+reductase+family+1+member+C2&column=ki&startPg=0&Increment=50&submit=Search

> <Link to Ligand-Target Pair in BindingDB>
http://www.bindingdb.org/jsp/dbsearch/PrimarySearch_ki.jsp?energyterm=kJ/mole&tag=r21&monomerid=35901&enzyme=Aldo-keto+reductase+family+1+member+C2&column=ki&startPg=0&Increment=50&submit=Search

> <Ligand HET ID in PDB>


> <PDB ID(s) for Ligand-Target Complex>


> <PubChem CID>
201986

> <PubChem SID>
85856694

> <ChEBI ID of Ligand>


> <ChEMBL ID of Ligand>


> <DrugBank ID of Ligand>


> <IUPHAR_GRAC ID of Ligand>


> <KEGG ID of Ligand>


> <ZINC ID of Ligand>
ZINC04903889

> <Number of Protein Chains in Target (>1 implies a multichain complex)>
1

> <BindingDB Target Chain Sequence>
MDSKYQCVKLNDGHFMPVLGFGTYAPAEVPKSKALEAVKLAIEAGFHHIDSAHVYNNEEQVGLAIRSKIADGSVKREDIFYTSKLWSNSHRPELVRPALERSLKNLQLDYVDLYLIHFPVSVKPGEEVIPKDENGKILFDTVDLCATWEAMEKCKDAGLAKSIGVSNFNHRLLEMILNKPGLKYKPVCNQVECHPYFNQRKLLDFCKSKDIVLVAYSALGSHREEPWVDPNSPVLLEDPVLCALAKKHKRTPALIALRYQLQRGVVVLAKSYNEQRIRQNVQVFEFQLTSEEMKAIDGLNRNVRYLTLDIFAGPPNYPFSDEY

> <PDB ID(s) of Target Chain>
1IHI,1J96,1XJB,2HDJ,4JQ1,4JQ2,4JQ3,4JQ4,4JQA,4JTQ,4JTR,4L1W,4XO6,4XO7,6F2U

> <UniProt (SwissProt) Recommended Name of Target Chain>
Aldo-keto reductase family 1 member C2

> <UniProt (SwissProt) Entry Name of Target Chain>
AK1C2_HUMAN

> <UniProt (SwissProt) Primary ID of Target Chain>
P52895

> <UniProt (SwissProt) Secondary ID(s) of Target Chain>
A8K2N9,B4DKR9,Q14133,Q5SR16,Q7M4N1,Q96A71

> <UniProt (SwissProt) Alternative ID(s) of Target Chain>


> <UniProt (TrEMBL) Submitted Name of Target Chain>


> <UniProt (TrEMBL) Entry Name of Target Chain>


> <UniProt (TrEMBL) Primary ID of Target Chain>


> <UniProt (TrEMBL) Secondary ID(s) of Target Chain>


> <UniProt (TrEMBL) Alternative ID(s) of Target Chain>


$$$$
42

Vconf v2.0 Academic SN VC001-00000579
 39 40  0  0  0  0  0  0  0  0999 V2000
   -1.7050    3.8810    0.6800 C   0  0  0  0  0  0  0  0  0  0  0
   -2.9570    3.2900    0.9760 C   0  0  0  0  0  0  0  0  0  0  0
   -3.1390    1.9000    0.9170 C   0  0  0  0  0  0  0  0  0  0  0
   -2.0680    1.0720    0.5610 C   0  0  0  0  0  0  0  0  0  0  0
   -0.6160    3.0380    0.3150 C   0  0  0  0  0  0  0  0  0  0  0
   -0.8200    1.6370    0.2630 C   0  0  0  0  0  0  0  0  0  0  0
    1.7250    2.9160   -0.3440 C   0  0  0  0  0  0  0  0  0  0  0
    2.6060    2.4250    0.6350 C   0  0  0  0  0  0  0  0  0  0  0
    2.0290    2.7330   -1.7030 C   0  0  0  0  0  0  0  0  0  0  0
    3.7730    1.7440    0.2520 C   0  0  0  0  0  0  0  0  0  0  0
    4.0930    1.5410   -1.1100 C   0  0  0  0  0  0  0  0  0  0  0
    0.6040    3.5850    0.0180 N   0  0  0  0  0  0  0  0  0  0  0
   -1.6060    5.2950    0.7650 C   0  0  0  0  0  0  0  0  0  0  0
   -0.5500    5.9220    0.5270 O   0  0  0  0  0  0  0  0  0  0  0
   -2.6660    6.0580    1.1170 O   0  0  0  0  0  0  0  0  0  0  0
    3.1980    2.0500   -2.0800 C   0  0  0  0  0  0  0  0  0  0  0
    5.3480    0.8080   -1.4750 C   0  0  0  0  0  0  0  0  0  0  0
    6.5850    1.5490   -0.9170 C   0  0  0  0  0  0  0  0  0  0  0
    5.3230   -0.6220   -0.8890 C   0  0  0  0  0  0  0  0  0  0  0
    5.5740    0.6560   -2.9980 C   0  0  0  0  0  0  0  0  0  0  0
   -3.7560    3.8700    1.2390 H   0  0  0  0  0  0  0  0  0  0  0
   -4.0500    1.4940    1.1340 H   0  0  0  0  0  0  0  0  0  0  0
   -2.1960    0.0610    0.5170 H   0  0  0  0  0  0  0  0  0  0  0
   -0.0560    1.0120    0.0040 H   0  0  0  0  0  0  0  0  0  0  0
    2.3990    2.5590    1.6250 H   0  0  0  0  0  0  0  0  0  0  0
    1.3990    3.0930   -2.4210 H   0  0  0  0  0  0  0  0  0  0  0
    4.3970    1.3920    0.9780 H   0  0  0  0  0  0  0  0  0  0  0
    0.6820    4.5490    0.0610 H   0  0  0  0  0  0  0  0  0  0  0
   -2.4680    7.0160    1.1440 H   0  0  0  0  0  0  0  0  0  0  0
    3.3880    1.9300   -3.0740 H   0  0  0  0  0  0  0  0  0  0  0
    7.4940    1.0260   -1.2150 H   0  0  0  0  0  0  0  0  0  0  0
    6.6200    2.5660   -1.3100 H   0  0  0  0  0  0  0  0  0  0  0
    6.5530    1.5890    0.1730 H   0  0  0  0  0  0  0  0  0  0  0
    6.2240   -1.1590   -1.1870 H   0  0  0  0  0  0  0  0  0  0  0
    5.2850   -0.5940    0.2010 H   0  0  0  0  0  0  0  0  0  0  0
    4.4520   -1.1640   -1.2620 H   0  0  0  0  0  0  0  0  0  0  0
    6.5030    0.1150   -3.1830 H   0  0  0  0  0  0  0  0  0  0  0
    4.7530    0.0970   -3.4490 H   0  0  0  0  0  0  0  0  0  0  0
    5.6460    1.6380   -3.4700 H   0  0  0  0  0  0  0  0  0  0  0
  1  2  2  0  0  0  0
  1  5  1  0  0  0  0
  1 13  1  0  0  0  0
  2  3  1  0  0  0  0
  2 21  1  0  0  0  0
  3  4  2  0  0  0  0
  3 22  1  0  0  0  0
  4  6  1  0  0  0  0
  4 23  1  0  0  0  0
  5  6  2  0  0  0  0
  5 12  1  0  0  0  0
  6 24  1  0  0  0  0
  7  8  1  0  0  0  0
  7  9  2  0  0  0  0
  7 12  1  0  0  0  0
  8 10  2  0  0  0  0
  8 25  1  0  0  0  0
  9 16  1  0  0  0  0
  9 26  1  0  0  0  0
 10 11  1  0  0  0  0
 10 27  1  0  0  0  0
 11 16  2  0  0  0  0
 11 17  1  0  0  0  0
 12 28  1  0  0  0  0
 13 14  2  0  0  0  0
 13 15  1  0  0  0  0
 15 29  1  0  0  0  0
 16 30  1  0  0  0  0
 17 18  1  0  0  0  0
 17 19  1  0  0  0  0
 17 20  1  0  0  0  0
 18 31  1  0  0  0  0
 18 32  1  0  0  0  0
 18 33  1  0  0  0  0
 19 34  1  0  0  0  0
 19 35  1  0  0  0  0
 19 36  1  0  0  0  0
 20 37  1  0  0  0  0
 20 38  1  0  0  0  0
 20 39  1  0  0  0  0
M  END
> <From>
www.bindingDB.org

> <BindingDB Reactant_set_id>
50940527

> <Ligand InChI>
InChI=1S/C17H19NO2/c1-17(2,3)12-8-10-13(11-9-12)18-15-7-5-4-6-14(15)16(19)20/h4-11,18H,1-3H3,(H,19,20)

> <Ligand InChI Key>
ZOXRANQMDRRBBA-UHFFFAOYSA-N

> <BindingDB MonomerID>
35916

> <BindingDB Ligand Name>
flufenamic acid analogue, 42

> <Target Name Assigned by Curator or DataSource>
Aldo-keto reductase family 1 member C2

> <Target Source Organism According to Curator or DataSource>
Homo sapiens

> <Ki (nM)>


> <IC50 (nM)>
 1070

> <Kd (nM)>


> <EC50 (nM)>


> <kon (M-1-s-1)>


> <koff (s-1)>


> <pH>


> <Temp C>


> <Curation/DataSource>
ChEMBL

> <Article DOI>
10.1021/jm201547v

> <PMID>
22263837

> <PubChem AID>


> <Patent Number>


> <Authors>
Adeniji, AO; Twenter, BM; Byrns, MC; Jin, Y; Chen, M; Winkler, JD; Penning, TM

> <Institution>
University of Pennsylvania

> <Link to Ligand in BindingDB>
http://www.bindingdb.org/bind/chemsearch/marvin/MolStructure.jsp?monomerid=35916

> <Link to Ligand-Target Pair in BindingDB>
http://www.bindingdb.org/jsp/dbsearch/PrimarySearch_ki.jsp?energyterm=kJ/mole&tag=pol&polymerid=3022&target=Aldo-keto+reductase+family+1+member+C2&column=ki&startPg=0&Increment=50&submit=Search

> <Link to Ligand-Target Pair in BindingDB>
http://www.bindingdb.org/jsp/dbsearch/PrimarySearch_ki.jsp?energyterm=kJ/mole&tag=r21&monomerid=35916&enzyme=Aldo-keto+reductase+family+1+member+C2&column=ki&startPg=0&Increment=50&submit=Search

> <Ligand HET ID in PDB>


> <PDB ID(s) for Ligand-Target Complex>


> <PubChem CID>
205081

> <PubChem SID>
85856709

> <ChEBI ID of Ligand>


> <ChEMBL ID of Ligand>


> <DrugBank ID of Ligand>


> <IUPHAR_GRAC ID of Ligand>


> <KEGG ID of Ligand>


> <ZINC ID of Ligand>
ZINC03631867

> <Number of Protein Chains in Target (>1 implies a multichain complex)>
1

> <BindingDB Target Chain Sequence>
MDSKYQCVKLNDGHFMPVLGFGTYAPAEVPKSKALEAVKLAIEAGFHHIDSAHVYNNEEQVGLAIRSKIADGSVKREDIFYTSKLWSNSHRPELVRPALERSLKNLQLDYVDLYLIHFPVSVKPGEEVIPKDENGKILFDTVDLCATWEAMEKCKDAGLAKSIGVSNFNHRLLEMILNKPGLKYKPVCNQVECHPYFNQRKLLDFCKSKDIVLVAYSALGSHREEPWVDPNSPVLLEDPVLCALAKKHKRTPALIALRYQLQRGVVVLAKSYNEQRIRQNVQVFEFQLTSEEMKAIDGLNRNVRYLTLDIFAGPPNYPFSDEY

> <PDB ID(s) of Target Chain>
1IHI,1J96,1XJB,2HDJ,4JQ1,4JQ2,4JQ3,4JQ4,4JQA,4JTQ,4JTR,4L1W,4XO6,4XO7,6F2U

> <UniProt (SwissProt) Recommended Name of Target Chain>
Aldo-keto reductase family 1 member C2

> <UniProt (SwissProt) Entry Name of Target Chain>
AK1C2_HUMAN

> <UniProt (SwissProt) Primary ID of Target Chain>
P52895

> <UniProt (SwissProt) Secondary ID(s) of Target Chain>
A8K2N9,B4DKR9,Q14133,Q5SR16,Q7M4N1,Q96A71

> <UniProt (SwissProt) Alternative ID(s) of Target Chain>


> <UniProt (TrEMBL) Submitted Name of Target Chain>


> <UniProt (TrEMBL) Entry Name of Target Chain>


> <UniProt (TrEMBL) Primary ID of Target Chain>


> <UniProt (TrEMBL) Secondary ID(s) of Target Chain>


> <UniProt (TrEMBL) Alternative ID(s) of Target Chain>


$$$$
202918

Vconf v2.0 Academic SN VC001-00000579
 31 32  0  0  0  0  0  0  0  0999 V2000
    4.8550    6.2170    2.8380 O   0  0  0  0  0  0  0  0  0  0  0
    2.0140   -1.2190   -2.8130 O   0  0  0  0  0  0  0  0  0  0  0
    1.6700    0.6750   -1.7470 O   0  0  0  0  0  0  0  0  0  0  0
    3.5900    1.8420   -0.3340 N   0  0  0  0  0  0  0  0  0  0  0
    4.3690    0.7770   -0.7040 C   0  0  0  0  0  0  0  0  0  0  0
    3.9320    2.8810    0.4680 C   0  0  0  0  0  0  0  0  0  0  0
    3.8250   -0.2410   -1.5400 C   0  0  0  0  0  0  0  0  0  0  0
    5.7180    0.6720   -0.2870 C   0  0  0  0  0  0  0  0  0  0  0
    4.2220    2.6940    1.8340 C   0  0  0  0  0  0  0  0  0  0  0
    3.9380    4.1820   -0.0660 C   0  0  0  0  0  0  0  0  0  0  0
    4.6490   -1.3270   -1.9190 C   0  0  0  0  0  0  0  0  0  0  0
    4.5600    5.0990    2.1110 C   0  0  0  0  0  0  0  0  0  0  0
    4.5390    3.7940    2.6490 C   0  0  0  0  0  0  0  0  0  0  0
    4.2550    5.2820    0.7500 C   0  0  0  0  0  0  0  0  0  0  0
    6.5170   -0.4130   -0.6720 C   0  0  0  0  0  0  0  0  0  0  0
    5.9810   -1.4160   -1.4900 C   0  0  0  0  0  0  0  0  0  0  0
    2.4880   -0.2310   -2.0200 C   0  0  0  0  0  0  0  0  0  0  0
    5.1830    6.1630    4.2290 C   0  0  0  0  0  0  0  0  0  0  0
    1.0790   -1.0950   -3.0760 H   0  0  0  0  0  0  0  0  0  0  0
    2.6960    1.8810   -0.7050 H   0  0  0  0  0  0  0  0  0  0  0
    6.1360    1.3940    0.3000 H   0  0  0  0  0  0  0  0  0  0  0
    4.2020    1.7560    2.2370 H   0  0  0  0  0  0  0  0  0  0  0
    3.7140    4.3320   -1.0510 H   0  0  0  0  0  0  0  0  0  0  0
    4.2850   -2.0720   -2.5160 H   0  0  0  0  0  0  0  0  0  0  0
    4.7510    3.6400    3.6340 H   0  0  0  0  0  0  0  0  0  0  0
    4.2610    6.2210    0.3510 H   0  0  0  0  0  0  0  0  0  0  0
    7.4870   -0.4710   -0.3610 H   0  0  0  0  0  0  0  0  0  0  0
    6.5590   -2.2070   -1.7740 H   0  0  0  0  0  0  0  0  0  0  0
    5.3770    7.1750    4.5840 H   0  0  0  0  0  0  0  0  0  0  0
    4.3530    5.7420    4.7980 H   0  0  0  0  0  0  0  0  0  0  0
    6.0780    5.5580    4.3830 H   0  0  0  0  0  0  0  0  0  0  0
  1 12  1  0  0  0  0
  1 18  1  0  0  0  0
  2 17  1  0  0  0  0
  2 19  1  0  0  0  0
  3 17  2  0  0  0  0
  4  5  1  0  0  0  0
  4  6  1  0  0  0  0
  4 20  1  0  0  0  0
  5  7  2  0  0  0  0
  5  8  1  0  0  0  0
  6  9  2  0  0  0  0
  6 10  1  0  0  0  0
  7 11  1  0  0  0  0
  7 17  1  0  0  0  0
  8 15  2  0  0  0  0
  8 21  1  0  0  0  0
  9 13  1  0  0  0  0
  9 22  1  0  0  0  0
 10 14  2  0  0  0  0
 10 23  1  0  0  0  0
 11 16  2  0  0  0  0
 11 24  1  0  0  0  0
 12 13  2  0  0  0  0
 12 14  1  0  0  0  0
 13 25  1  0  0  0  0
 14 26  1  0  0  0  0
 15 16  1  0  0  0  0
 15 27  1  0  0  0  0
 16 28  1  0  0  0  0
 18 29  1  0  0  0  0
 18 30  1  0  0  0  0
 18 31  1  0  0  0  0
M  END
> <From>
www.bindingDB.org

> <BindingDB Reactant_set_id>
50940525

> <Ligand InChI>
InChI=1S/C14H13NO3/c1-18-11-8-6-10(7-9-11)15-13-5-3-2-4-12(13)14(16)17/h2-9,15H,1H3,(H,16,17)

> <Ligand InChI Key>
AOTGWRVCPVLSPA-UHFFFAOYSA-N

> <BindingDB MonomerID>
69369

> <BindingDB Ligand Name>
2-(4-methoxyanilino)benzoic acid::2-(p-anisidino)benzoic acid::2-[(4-methoxyphenyl)amino]benzoic acid::MLS000775662::SMR000370544::cid_202918

> <Target Name Assigned by Curator or DataSource>
Aldo-keto reductase family 1 member C2

> <Target Source Organism According to Curator or DataSource>
Homo sapiens

> <Ki (nM)>


> <IC50 (nM)>
 700

> <Kd (nM)>


> <EC50 (nM)>


> <kon (M-1-s-1)>


> <koff (s-1)>


> <pH>


> <Temp C>


> <Curation/DataSource>
ChEMBL

> <Article DOI>
10.1021/jm201547v

> <PMID>
22263837

> <PubChem AID>


> <Patent Number>


> <Authors>
Adeniji, AO; Twenter, BM; Byrns, MC; Jin, Y; Chen, M; Winkler, JD; Penning, TM

> <Institution>
University of Pennsylvania

> <Link to Ligand in BindingDB>
http://www.bindingdb.org/bind/chemsearch/marvin/MolStructure.jsp?monomerid=69369

> <Link to Ligand-Target Pair in BindingDB>
http://www.bindingdb.org/jsp/dbsearch/PrimarySearch_ki.jsp?energyterm=kJ/mole&tag=pol&polymerid=3022&target=Aldo-keto+reductase+family+1+member+C2&column=ki&startPg=0&Increment=50&submit=Search

> <Link to Ligand-Target Pair in BindingDB>
http://www.bindingdb.org/jsp/dbsearch/PrimarySearch_ki.jsp?energyterm=kJ/mole&tag=r21&monomerid=69369&enzyme=Aldo-keto+reductase+family+1+member+C2&column=ki&startPg=0&Increment=50&submit=Search

> <Ligand HET ID in PDB>


> <PDB ID(s) for Ligand-Target Complex>


> <PubChem CID>
202918

> <PubChem SID>
252647537

> <ChEBI ID of Ligand>


> <ChEMBL ID of Ligand>


> <DrugBank ID of Ligand>


> <IUPHAR_GRAC ID of Ligand>


> <KEGG ID of Ligand>


> <ZINC ID of Ligand>
ZINC00241322

> <Number of Protein Chains in Target (>1 implies a multichain complex)>
1

> <BindingDB Target Chain Sequence>
MDSKYQCVKLNDGHFMPVLGFGTYAPAEVPKSKALEAVKLAIEAGFHHIDSAHVYNNEEQVGLAIRSKIADGSVKREDIFYTSKLWSNSHRPELVRPALERSLKNLQLDYVDLYLIHFPVSVKPGEEVIPKDENGKILFDTVDLCATWEAMEKCKDAGLAKSIGVSNFNHRLLEMILNKPGLKYKPVCNQVECHPYFNQRKLLDFCKSKDIVLVAYSALGSHREEPWVDPNSPVLLEDPVLCALAKKHKRTPALIALRYQLQRGVVVLAKSYNEQRIRQNVQVFEFQLTSEEMKAIDGLNRNVRYLTLDIFAGPPNYPFSDEY

> <PDB ID(s) of Target Chain>
1IHI,1J96,1XJB,2HDJ,4JQ1,4JQ2,4JQ3,4JQ4,4JQA,4JTQ,4JTR,4L1W,4XO6,4XO7,6F2U

> <UniProt (SwissProt) Recommended Name of Target Chain>
Aldo-keto reductase family 1 member C2

> <UniProt (SwissProt) Entry Name of Target Chain>
AK1C2_HUMAN

> <UniProt (SwissProt) Primary ID of Target Chain>
P52895

> <UniProt (SwissProt) Secondary ID(s) of Target Chain>
A8K2N9,B4DKR9,Q14133,Q5SR16,Q7M4N1,Q96A71

> <UniProt (SwissProt) Alternative ID(s) of Target Chain>


> <UniProt (TrEMBL) Submitted Name of Target Chain>


> <UniProt (TrEMBL) Entry Name of Target Chain>


> <UniProt (TrEMBL) Primary ID of Target Chain>


> <UniProt (TrEMBL) Secondary ID(s) of Target Chain>


> <UniProt (TrEMBL) Alternative ID(s) of Target Chain>


$$$$
BindingDB_220122_mol_1

Vconf v2.0 Academic SN VC001-00000579
 22 23  0  0  0  0  0  0  0  0999 V2000
    0.0000    0.0000    0.0000 O   0  0  0  0  0  0  0  0  0  0  0
   -0.7145   -0.4125    0.0000 C   0  0  0  0  0  0  0  0  0  0  0
   -1.4289    0.0000    0.0000 O   0  0  0  0  0  0  0  0  0  0  0
   -0.7145   -1.2375    0.0000 C   0  0  0  0  0  0  0  0  0  0  0
    0.0000   -1.6500    0.0000 C   0  0  0  0  0  0  0  0  0  0  0
    0.0000   -2.4750    0.0000 C   0  0  0  0  0  0  0  0  0  0  0
   -0.7145   -2.8875    0.0000 C   0  0  0  0  0  0  0  0  0  0  0
   -1.4289   -2.4750    0.0000 C   0  0  0  0  0  0  0  0  0  0  0
   -1.4289   -1.6500    0.0000 C   0  0  0  0  0  0  0  0  0  0  0
   -2.1434   -1.2375    0.0000 N   0  0  0  0  0  0  0  0  0  0  0
   -2.8579   -1.6500    0.0000 C   0  0  0  0  0  0  0  0  0  0  0
   -2.8579   -2.4750    0.0000 C   0  0  0  0  0  0  0  0  0  0  0
   -3.5724   -2.8875    0.0000 C   0  0  0  0  0  0  0  0  0  0  0
   -4.2868   -2.4750    0.0000 C   0  0  0  0  0  0  0  0  0  0  0
   -4.2868   -1.6500    0.0000 C   0  0  0  0  0  0  0  0  0  0  0
   -3.5724   -1.2375    0.0000 C   0  0  0  0  0  0  0  0  0  0  0
   -3.5724   -0.4125    0.0000 C   0  0  0  0  0  0  0  0  0  0  0
   -2.8579    0.0000    0.0000 O   0  0  0  0  0  0  0  0  0  0  0
   -4.2869    0.0000    0.0000 O   0  0  0  0  0  0  0  0  0  0  0
   -3.5724   -3.7125    0.0000 C   0  0  0  0  0  0  0  0  0  0  0
   -4.2869   -4.1250    0.0000 O   0  0  0  0  0  0  0  0  0  0  0
   -2.8580   -4.1250    0.0000 C   0  0  0  0  0  0  0  0  0  0  0
  1  2  1  0  0  0  0
  2  3  2  0  0  0  0
  2  4  1  0  0  0  0
  4  5  4  0  0  0  0
  5  6  4  0  0  0  0
  6  7  4  0  0  0  0
  7  8  4  0  0  0  0
  8  9  4  0  0  0  0
  4  9  4  0  0  0  0
  9 10  1  0  0  0  0
 10 11  1  0  0  0  0
 11 12  4  0  0  0  0
 12 13  4  0  0  0  0
 13 14  4  0  0  0  0
 14 15  4  0  0  0  0
 15 16  4  0  0  0  0
 11 16  4  0  0  0  0
 16 17  1  0  0  0  0
 17 18  1  0  0  0  0
 17 19  2  0  0  0  0
 13 20  1  0  0  0  0
 20 21  2  0  0  0  0
 20 22  1  0  0  0  0
M  END
> <From>
www.bindingDB.org

> <BindingDB Reactant_set_id>
384843

> <Ligand InChI>
InChI=1S/C16H13NO5/c1-9(18)10-6-7-12(16(21)22)14(8-10)17-13-5-3-2-4-11(13)15(19)20/h2-8,17H,1H3,(H,19,20)(H,21,22)

> <Ligand InChI Key>
VNDSZOSZZSPPFX-UHFFFAOYSA-N

> <BindingDB MonomerID>
220122

> <BindingDB Ligand Name>
US9271961, BMT 3-224

> <Target Name Assigned by Curator or DataSource>
Aldo-keto reductase family 1 member C2

> <Target Source Organism According to Curator or DataSource>
Homo sapiens

> <Ki (nM)>


> <IC50 (nM)>
 6410

> <Kd (nM)>


> <EC50 (nM)>


> <kon (M-1-s-1)>


> <koff (s-1)>


> <pH>


> <Temp C>


> <Curation/DataSource>
US Patent

> <Article DOI>


> <PMID>


> <PubChem AID>


> <Patent Number>
US9271961

> <Authors>
Penning, TM; Adeniji, AO; Burns, MC; Winkler, J; Twenter, B

> <Institution>
The Trustees of the University of Pennsylvania

> <Link to Ligand in BindingDB>
http://www.bindingdb.org/bind/chemsearch/marvin/MolStructure.jsp?monomerid=220122

> <Link to Ligand-Target Pair in BindingDB>
http://www.bindingdb.org/jsp/dbsearch/PrimarySearch_ki.jsp?energyterm=kJ/mole&tag=pol&polymerid=3022&target=Aldo-keto+reductase+family+1+member+C2&column=ki&startPg=0&Increment=50&submit=Search

> <Link to Ligand-Target Pair in BindingDB>
http://www.bindingdb.org/jsp/dbsearch/PrimarySearch_ki.jsp?energyterm=kJ/mole&tag=r21&monomerid=220122&enzyme=Aldo-keto+reductase+family+1+member+C2&column=ki&startPg=0&Increment=50&submit=Search

> <Ligand HET ID in PDB>


> <PDB ID(s) for Ligand-Target Complex>


> <PubChem CID>
124222778

> <PubChem SID>
329995261

> <ChEBI ID of Ligand>


> <ChEMBL ID of Ligand>


> <DrugBank ID of Ligand>


> <IUPHAR_GRAC ID of Ligand>


> <KEGG ID of Ligand>


> <ZINC ID of Ligand>


> <Number of Protein Chains in Target (>1 implies a multichain complex)>
1

> <BindingDB Target Chain Sequence>
MDSKYQCVKLNDGHFMPVLGFGTYAPAEVPKSKALEAVKLAIEAGFHHIDSAHVYNNEEQVGLAIRSKIADGSVKREDIFYTSKLWSNSHRPELVRPALERSLKNLQLDYVDLYLIHFPVSVKPGEEVIPKDENGKILFDTVDLCATWEAMEKCKDAGLAKSIGVSNFNHRLLEMILNKPGLKYKPVCNQVECHPYFNQRKLLDFCKSKDIVLVAYSALGSHREEPWVDPNSPVLLEDPVLCALAKKHKRTPALIALRYQLQRGVVVLAKSYNEQRIRQNVQVFEFQLTSEEMKAIDGLNRNVRYLTLDIFAGPPNYPFSDEY

> <PDB ID(s) of Target Chain>
1IHI,1J96,1XJB,2HDJ,4JQ1,4JQ2,4JQ3,4JQ4,4JQA,4JTQ,4JTR,4L1W,4XO6,4XO7,6F2U

> <UniProt (SwissProt) Recommended Name of Target Chain>
Aldo-keto reductase family 1 member C2

> <UniProt (SwissProt) Entry Name of Target Chain>
AK1C2_HUMAN

> <UniProt (SwissProt) Primary ID of Target Chain>
P52895

> <UniProt (SwissProt) Secondary ID(s) of Target Chain>
A8K2N9,B4DKR9,Q14133,Q5SR16,Q7M4N1,Q96A71

> <UniProt (SwissProt) Alternative ID(s) of Target Chain>


> <UniProt (TrEMBL) Submitted Name of Target Chain>


> <UniProt (TrEMBL) Entry Name of Target Chain>


> <UniProt (TrEMBL) Primary ID of Target Chain>


> <UniProt (TrEMBL) Secondary ID(s) of Target Chain>


> <UniProt (TrEMBL) Alternative ID(s) of Target Chain>


$$$$
BindingDB_220123_mol_1

Vconf v2.0 Academic SN VC001-00000579
 23 24  0  0  0  0  0  0  0  0999 V2000
    0.0000    0.0000    0.0000 O   0  0  0  0  0  0  0  0  0  0  0
   -0.7145   -0.4125    0.0000 C   0  0  0  0  0  0  0  0  0  0  0
   -1.4289    0.0000    0.0000 O   0  0  0  0  0  0  0  0  0  0  0
   -0.7145   -1.2375    0.0000 C   0  0  0  0  0  0  0  0  0  0  0
    0.0000   -1.6500    0.0000 C   0  0  0  0  0  0  0  0  0  0  0
    0.0000   -2.4750    0.0000 C   0  0  0  0  0  0  0  0  0  0  0
   -0.7145   -2.8875    0.0000 C   0  0  0  0  0  0  0  0  0  0  0
   -1.4289   -2.4750    0.0000 C   0  0  0  0  0  0  0  0  0  0  0
   -1.4289   -1.6500    0.0000 C   0  0  0  0  0  0  0  0  0  0  0
   -2.1434   -1.2375    0.0000 N   0  0  0  0  0  0  0  0  0  0  0
   -2.8579   -1.6500    0.0000 C   0  0  0  0  0  0  0  0  0  0  0
   -2.8579   -2.4750    0.0000 C   0  0  0  0  0  0  0  0  0  0  0
   -3.5724   -2.8875    0.0000 C   0  0  0  0  0  0  0  0  0  0  0
   -4.2868   -2.4750    0.0000 C   0  0  0  0  0  0  0  0  0  0  0
   -4.2868   -1.6500    0.0000 C   0  0  0  0  0  0  0  0  0  0  0
   -3.5724   -1.2375    0.0000 C   0  0  0  0  0  0  0  0  0  0  0
   -3.5724   -0.4125    0.0000 N   0  0  0  0  0  0  0  0  0  0  0
   -2.8579    0.0000    0.0000 O   0  0  0  0  0  0  0  0  0  0  0
   -4.2869    0.0000    0.0000 O   0  0  0  0  0  0  0  0  0  0  0
   -3.5724   -3.7125    0.0000 C   0  0  0  0  0  0  0  0  0  0  0
   -4.2869   -4.1250    0.0000 F   0  0  0  0  0  0  0  0  0  0  0
   -2.8580   -4.1250    0.0000 F   0  0  0  0  0  0  0  0  0  0  0
   -2.8580   -3.3000    0.0000 F   0  0  0  0  0  0  0  0  0  0  0
  1  2  1  0  0  0  0
  2  3  2  0  0  0  0
  2  4  1  0  0  0  0
  4  5  4  0  0  0  0
  5  6  4  0  0  0  0
  6  7  4  0  0  0  0
  7  8  4  0  0  0  0
  8  9  4  0  0  0  0
  4  9  4  0  0  0  0
  9 10  1  0  0  0  0
 10 11  1  0  0  0  0
 11 12  4  0  0  0  0
 12 13  4  0  0  0  0
 13 14  4  0  0  0  0
 14 15  4  0  0  0  0
 15 16  4  0  0  0  0
 11 16  4  0  0  0  0
 16 17  1  0  0  0  0
 17 18  2  0  0  0  0
 17 19  2  0  0  0  0
 13 20  1  0  0  0  0
 20 21  1  0  0  0  0
 20 22  1  0  0  0  0
 20 23  1  0  0  0  0
M  END
> <From>
www.bindingDB.org

> <BindingDB Reactant_set_id>
384844

> <Ligand InChI>
InChI=1S/C14H9F3N2O4/c15-14(16,17)8-5-6-12(19(22)23)11(7-8)18-10-4-2-1-3-9(10)13(20)21/h1-7,18H,(H,20,21)

> <Ligand InChI Key>
FZAWUOZTOMHTKK-UHFFFAOYSA-N

> <BindingDB MonomerID>
220123

> <BindingDB Ligand Name>
US9271961, BMT 5-119

> <Target Name Assigned by Curator or DataSource>
Aldo-keto reductase family 1 member C2

> <Target Source Organism According to Curator or DataSource>
Homo sapiens

> <Ki (nM)>


> <IC50 (nM)>
 4350

> <Kd (nM)>


> <EC50 (nM)>


> <kon (M-1-s-1)>


> <koff (s-1)>


> <pH>


> <Temp C>


> <Curation/DataSource>
US Patent

> <Article DOI>


> <PMID>


> <PubChem AID>


> <Patent Number>
US9271961

> <Authors>
Penning, TM; Adeniji, AO; Burns, MC; Winkler, J; Twenter, B

> <Institution>
The Trustees of the University of Pennsylvania

> <Link to Ligand in BindingDB>
http://www.bindingdb.org/bind/chemsearch/marvin/MolStructure.jsp?monomerid=220123

> <Link to Ligand-Target Pair in BindingDB>
http://www.bindingdb.org/jsp/dbsearch/PrimarySearch_ki.jsp?energyterm=kJ/mole&tag=pol&polymerid=3022&target=Aldo-keto+reductase+family+1+member+C2&column=ki&startPg=0&Increment=50&submit=Search

> <Link to Ligand-Target Pair in BindingDB>
http://www.bindingdb.org/jsp/dbsearch/PrimarySearch_ki.jsp?energyterm=kJ/mole&tag=r21&monomerid=220123&enzyme=Aldo-keto+reductase+family+1+member+C2&column=ki&startPg=0&Increment=50&submit=Search

> <Ligand HET ID in PDB>


> <PDB ID(s) for Ligand-Target Complex>


> <PubChem CID>
45117711

> <PubChem SID>
329995262

> <ChEBI ID of Ligand>


> <ChEMBL ID of Ligand>


> <DrugBank ID of Ligand>


> <IUPHAR_GRAC ID of Ligand>


> <KEGG ID of Ligand>
C06058

> <ZINC ID of Ligand>


> <Number of Protein Chains in Target (>1 implies a multichain complex)>
1

> <BindingDB Target Chain Sequence>
MDSKYQCVKLNDGHFMPVLGFGTYAPAEVPKSKALEAVKLAIEAGFHHIDSAHVYNNEEQVGLAIRSKIADGSVKREDIFYTSKLWSNSHRPELVRPALERSLKNLQLDYVDLYLIHFPVSVKPGEEVIPKDENGKILFDTVDLCATWEAMEKCKDAGLAKSIGVSNFNHRLLEMILNKPGLKYKPVCNQVECHPYFNQRKLLDFCKSKDIVLVAYSALGSHREEPWVDPNSPVLLEDPVLCALAKKHKRTPALIALRYQLQRGVVVLAKSYNEQRIRQNVQVFEFQLTSEEMKAIDGLNRNVRYLTLDIFAGPPNYPFSDEY

> <PDB ID(s) of Target Chain>
1IHI,1J96,1XJB,2HDJ,4JQ1,4JQ2,4JQ3,4JQ4,4JQA,4JTQ,4JTR,4L1W,4XO6,4XO7,6F2U

> <UniProt (SwissProt) Recommended Name of Target Chain>
Aldo-keto reductase family 1 member C2

> <UniProt (SwissProt) Entry Name of Target Chain>
AK1C2_HUMAN

> <UniProt (SwissProt) Primary ID of Target Chain>
P52895

> <UniProt (SwissProt) Secondary ID(s) of Target Chain>
A8K2N9,B4DKR9,Q14133,Q5SR16,Q7M4N1,Q96A71

> <UniProt (SwissProt) Alternative ID(s) of Target Chain>


> <UniProt (TrEMBL) Submitted Name of Target Chain>


> <UniProt (TrEMBL) Entry Name of Target Chain>


> <UniProt (TrEMBL) Primary ID of Target Chain>


> <UniProt (TrEMBL) Secondary ID(s) of Target Chain>


> <UniProt (TrEMBL) Alternative ID(s) of Target Chain>


$$$$

  SciTegic04201616412D

 22 23  0  0  0  0            999 V2000
    1.2990   -0.7500    0.0000 C   0  0
    1.2990    0.7500    0.0000 C   0  0
    0.0000    1.5000    0.0000 C   0  0
   -1.2990    0.7500    0.0000 C   0  0
   -1.2990   -0.7500    0.0000 C   0  0
    0.0000   -1.5000    0.0000 C   0  0
    2.6003   -1.4977    0.0000 N   0  0
    3.8990   -0.7455    0.0000 C   0  0
    5.2007   -1.4909    0.0000 C   0  0
    6.4972   -0.7364    0.0000 C   0  0
    6.4920    0.7636    0.0000 C   0  0
    5.1903    1.5091    0.0000 C   0  0
    3.8939    0.7546    0.0000 C   0  0
    7.7995   -1.4823    0.0000 S   0  0
    7.8044   -2.6823    0.0000 F   0  0
    8.8365   -0.8784    0.0000 F   0  0
    6.6334   -1.1990    0.0000 F   0  0
    8.8411   -2.0782    0.0000 F   0  0
    7.7104   -0.2856    0.0000 F   0  0
   -0.0031   -3.0008    0.0000 C   0  0
    1.0351   -3.6026    0.0000 O   0  0
   -1.0432   -3.5994    0.0000 O   0  0
  1  2  2  0
  2  3  1  0
  3  4  2  0
  4  5  1  0
  5  6  2  0
  6  1  1  0
  1  7  1  0
  7  8  1  0
  8  9  2  0
  9 10  1  0
 10 11  2  0
 11 12  1  0
 12 13  2  0
 13  8  1  0
 10 14  1  0
 14 15  1  0
 14 16  1  0
 14 17  1  0
 14 18  1  0
 14 19  1  0
 20 21  1  0
 20 22  2  0
  6 20  1  0
M  END
> <From>
www.bindingDB.org

> <BindingDB Reactant_set_id>
50423856

> <Ligand InChI>
InChI=1S/C13H10F5NO2S/c14-22(15,16,17,18)10-5-3-4-9(8-10)19-12-7-2-1-6-11(12)13(20)21/h1-8,19H,(H,20,21)

> <Ligand InChI Key>
AOSAIHVVLGCXQM-UHFFFAOYSA-N

> <BindingDB MonomerID>
50124575

> <BindingDB Ligand Name>
CHEMBL3623735

> <Target Name Assigned by Curator or DataSource>
Aldo-keto reductase family 1 member C2

> <Target Source Organism According to Curator or DataSource>
Homo sapiens

> <Ki (nM)>


> <IC50 (nM)>
 270

> <Kd (nM)>


> <EC50 (nM)>


> <kon (M-1-s-1)>


> <koff (s-1)>


> <pH>


> <Temp C>


> <Curation/DataSource>
ChEMBL

> <Article DOI>
10.1016/j.bmcl.2015.09.012

> <PMID>
26372652

> <PubChem AID>


> <Patent Number>


> <Authors>
Hendriks, CM; Penning, TM; Zang, T; Wiemuth, D; GrÃ¼nder, S; Sanhueza, IA; Schoenebeck, F; Bolm, C

> <Institution>
RWTH Aachen University

> <Link to Ligand in BindingDB>
http://www.bindingdb.org/bind/chemsearch/marvin/MolStructure.jsp?monomerid=50124575

> <Link to Ligand-Target Pair in BindingDB>
http://www.bindingdb.org/jsp/dbsearch/PrimarySearch_ki.jsp?energyterm=kJ/mole&tag=pol&polymerid=3022&target=Aldo-keto+reductase+family+1+member+C2&column=ki&startPg=0&Increment=50&submit=Search

> <Link to Ligand-Target Pair in BindingDB>
http://www.bindingdb.org/jsp/dbsearch/PrimarySearch_ki.jsp?energyterm=kJ/mole&tag=r21&monomerid=50124575&enzyme=Aldo-keto+reductase+family+1+member+C2&column=ki&startPg=0&Increment=50&submit=Search

> <Ligand HET ID in PDB>


> <PDB ID(s) for Ligand-Target Complex>


> <PubChem CID>
122192740

> <PubChem SID>
321902158

> <ChEBI ID of Ligand>


> <ChEMBL ID of Ligand>
CHEMBL3623735

> <DrugBank ID of Ligand>


> <IUPHAR_GRAC ID of Ligand>


> <KEGG ID of Ligand>


> <ZINC ID of Ligand>


> <Number of Protein Chains in Target (>1 implies a multichain complex)>
1

> <BindingDB Target Chain Sequence>
MDSKYQCVKLNDGHFMPVLGFGTYAPAEVPKSKALEAVKLAIEAGFHHIDSAHVYNNEEQVGLAIRSKIADGSVKREDIFYTSKLWSNSHRPELVRPALERSLKNLQLDYVDLYLIHFPVSVKPGEEVIPKDENGKILFDTVDLCATWEAMEKCKDAGLAKSIGVSNFNHRLLEMILNKPGLKYKPVCNQVECHPYFNQRKLLDFCKSKDIVLVAYSALGSHREEPWVDPNSPVLLEDPVLCALAKKHKRTPALIALRYQLQRGVVVLAKSYNEQRIRQNVQVFEFQLTSEEMKAIDGLNRNVRYLTLDIFAGPPNYPFSDEY

> <PDB ID(s) of Target Chain>
1IHI,1J96,1XJB,2HDJ,4JQ1,4JQ2,4JQ3,4JQ4,4JQA,4JTQ,4JTR,4L1W,4XO6,4XO7,6F2U

> <UniProt (SwissProt) Recommended Name of Target Chain>
Aldo-keto reductase family 1 member C2

> <UniProt (SwissProt) Entry Name of Target Chain>
AK1C2_HUMAN

> <UniProt (SwissProt) Primary ID of Target Chain>
P52895

> <UniProt (SwissProt) Secondary ID(s) of Target Chain>
A8K2N9,B4DKR9,Q14133,Q5SR16,Q7M4N1,Q96A71

> <UniProt (SwissProt) Alternative ID(s) of Target Chain>


> <UniProt (TrEMBL) Submitted Name of Target Chain>


> <UniProt (TrEMBL) Entry Name of Target Chain>


> <UniProt (TrEMBL) Primary ID of Target Chain>


> <UniProt (TrEMBL) Secondary ID(s) of Target Chain>


> <UniProt (TrEMBL) Alternative ID(s) of Target Chain>


$$$$

  SciTegic04201616412D

 22 23  0  0  0  0            999 V2000
    1.2990   -0.7500    0.0000 C   0  0
    1.2990    0.7500    0.0000 C   0  0
    0.0000    1.5000    0.0000 C   0  0
   -1.2990    0.7500    0.0000 C   0  0
   -1.2990   -0.7500    0.0000 C   0  0
    0.0000   -1.5000    0.0000 C   0  0
    2.6003   -1.4977    0.0000 N   0  0
    3.8990   -0.7455    0.0000 C   0  0
    5.2007   -1.4909    0.0000 C   0  0
    6.4972   -0.7364    0.0000 C   0  0
    6.4920    0.7636    0.0000 C   0  0
    5.1903    1.5091    0.0000 C   0  0
    3.8939    0.7546    0.0000 C   0  0
    7.7891    1.5185    0.0000 S   0  0
    8.8308    0.9227    0.0000 F   0  0
    7.7846    2.7185    0.0000 F   0  0
    7.1328    0.5138    0.0000 F   0  0
    8.8260    2.1226    0.0000 F   0  0
    8.9877    1.5765    0.0000 F   0  0
   -0.0031   -3.0008    0.0000 C   0  0
    1.0351   -3.6026    0.0000 O   0  0
   -1.0432   -3.5994    0.0000 O   0  0
  1  2  2  0
  2  3  1  0
  3  4  2  0
  4  5  1  0
  5  6  2  0
  6  1  1  0
  1  7  1  0
  7  8  1  0
  8  9  2  0
  9 10  1  0
 10 11  2  0
 11 12  1  0
 12 13  2  0
 13  8  1  0
 11 14  1  0
 14 15  1  0
 14 16  1  0
 14 17  1  0
 14 18  1  0
 14 19  1  0
 20 21  1  0
 20 22  2  0
  6 20  1  0
M  END
> <From>
www.bindingDB.org

> <BindingDB Reactant_set_id>
50423859

> <Ligand InChI>
InChI=1S/C13H10F5NO2S/c14-22(15,16,17,18)10-7-5-9(6-8-10)19-12-4-2-1-3-11(12)13(20)21/h1-8,19H,(H,20,21)

> <Ligand InChI Key>
CUMCDOPLRDLUMP-UHFFFAOYSA-N

> <BindingDB MonomerID>
50124577

> <BindingDB Ligand Name>
CHEMBL3623738

> <Target Name Assigned by Curator or DataSource>
Aldo-keto reductase family 1 member C2

> <Target Source Organism According to Curator or DataSource>
Homo sapiens

> <Ki (nM)>


> <IC50 (nM)>
 150

> <Kd (nM)>


> <EC50 (nM)>


> <kon (M-1-s-1)>


> <koff (s-1)>


> <pH>


> <Temp C>


> <Curation/DataSource>
ChEMBL

> <Article DOI>
10.1016/j.bmcl.2015.09.012

> <PMID>
26372652

> <PubChem AID>


> <Patent Number>


> <Authors>
Hendriks, CM; Penning, TM; Zang, T; Wiemuth, D; GrÃ¼nder, S; Sanhueza, IA; Schoenebeck, F; Bolm, C

> <Institution>
RWTH Aachen University

> <Link to Ligand in BindingDB>
http://www.bindingdb.org/bind/chemsearch/marvin/MolStructure.jsp?monomerid=50124577

> <Link to Ligand-Target Pair in BindingDB>
http://www.bindingdb.org/jsp/dbsearch/PrimarySearch_ki.jsp?energyterm=kJ/mole&tag=pol&polymerid=3022&target=Aldo-keto+reductase+family+1+member+C2&column=ki&startPg=0&Increment=50&submit=Search

> <Link to Ligand-Target Pair in BindingDB>
http://www.bindingdb.org/jsp/dbsearch/PrimarySearch_ki.jsp?energyterm=kJ/mole&tag=r21&monomerid=50124577&enzyme=Aldo-keto+reductase+family+1+member+C2&column=ki&startPg=0&Increment=50&submit=Search

> <Ligand HET ID in PDB>


> <PDB ID(s) for Ligand-Target Complex>


> <PubChem CID>
122192743

> <PubChem SID>
321902160

> <ChEBI ID of Ligand>


> <ChEMBL ID of Ligand>
CHEMBL3623738

> <DrugBank ID of Ligand>


> <IUPHAR_GRAC ID of Ligand>


> <KEGG ID of Ligand>


> <ZINC ID of Ligand>


> <Number of Protein Chains in Target (>1 implies a multichain complex)>
1

> <BindingDB Target Chain Sequence>
MDSKYQCVKLNDGHFMPVLGFGTYAPAEVPKSKALEAVKLAIEAGFHHIDSAHVYNNEEQVGLAIRSKIADGSVKREDIFYTSKLWSNSHRPELVRPALERSLKNLQLDYVDLYLIHFPVSVKPGEEVIPKDENGKILFDTVDLCATWEAMEKCKDAGLAKSIGVSNFNHRLLEMILNKPGLKYKPVCNQVECHPYFNQRKLLDFCKSKDIVLVAYSALGSHREEPWVDPNSPVLLEDPVLCALAKKHKRTPALIALRYQLQRGVVVLAKSYNEQRIRQNVQVFEFQLTSEEMKAIDGLNRNVRYLTLDIFAGPPNYPFSDEY

> <PDB ID(s) of Target Chain>
1IHI,1J96,1XJB,2HDJ,4JQ1,4JQ2,4JQ3,4JQ4,4JQA,4JTQ,4JTR,4L1W,4XO6,4XO7,6F2U

> <UniProt (SwissProt) Recommended Name of Target Chain>
Aldo-keto reductase family 1 member C2

> <UniProt (SwissProt) Entry Name of Target Chain>
AK1C2_HUMAN

> <UniProt (SwissProt) Primary ID of Target Chain>
P52895

> <UniProt (SwissProt) Secondary ID(s) of Target Chain>
A8K2N9,B4DKR9,Q14133,Q5SR16,Q7M4N1,Q96A71

> <UniProt (SwissProt) Alternative ID(s) of Target Chain>


> <UniProt (TrEMBL) Submitted Name of Target Chain>


> <UniProt (TrEMBL) Entry Name of Target Chain>


> <UniProt (TrEMBL) Primary ID of Target Chain>


> <UniProt (TrEMBL) Secondary ID(s) of Target Chain>


> <UniProt (TrEMBL) Alternative ID(s) of Target Chain>


$$$$
BindingDB_50337278_mol_1

Vconf v2.0 Academic SN VC001-00000579
 27 28  0  0  0  0  0  0  0  0999 V2000
   10.5480   -6.4450    0.7550 C   0  0  0  0  0  0  0  0  0  0  0
   10.7380   -7.8360    0.8150 C   0  0  0  0  0  0  0  0  0  0  0
   12.0390   -8.3690    0.8030 C   0  0  0  0  0  0  0  0  0  0  0
   13.1500   -7.5100    0.7280 C   0  0  0  0  0  0  0  0  0  0  0
   12.9620   -6.1170    0.6590 C   0  0  0  0  0  0  0  0  0  0  0
   11.6580   -5.5860    0.6800 C   0  0  0  0  0  0  0  0  0  0  0
   14.0360   -5.2930    0.5950 N   0  0  0  0  0  0  0  0  0  0  0
   14.5760   -4.7390   -0.5360 C   0  0  0  0  0  0  0  0  0  0  0
   14.0280   -5.0090   -1.8140 C   0  0  0  0  0  0  0  0  0  0  0
   14.5790   -4.4490   -2.9750 C   0  0  0  0  0  0  0  0  0  0  0
   15.6910   -3.6050   -2.8790 C   0  0  0  0  0  0  0  0  0  0  0
   16.2490   -3.3250   -1.6230 C   0  0  0  0  0  0  0  0  0  0  0
   15.7090   -3.8810   -0.4380 C   0  0  0  0  0  0  0  0  0  0  0
   16.3360   -3.5480    0.7920 C   0  0  0  0  0  0  0  0  0  0  0
   17.4120   -2.7300    0.8380 O   0  0  0  0  0  0  0  0  0  0  0
   15.9420   -3.9800    1.8980 O   0  0  0  0  0  0  0  0  0  0  0
    9.6030   -6.0580    0.7670 H   0  0  0  0  0  0  0  0  0  0  0
    9.9320   -8.4600    0.8690 H   0  0  0  0  0  0  0  0  0  0  0
   12.1780   -9.3790    0.8480 H   0  0  0  0  0  0  0  0  0  0  0
   14.0930   -7.9010    0.7190 H   0  0  0  0  0  0  0  0  0  0  0
   11.5150   -4.5760    0.6370 H   0  0  0  0  0  0  0  0  0  0  0
   14.4630   -5.0870    1.4400 H   0  0  0  0  0  0  0  0  0  0  0
   13.2180   -5.6220   -1.9100 H   0  0  0  0  0  0  0  0  0  0  0
   14.1700   -4.6560   -3.8870 H   0  0  0  0  0  0  0  0  0  0  0
   16.0950   -3.1940   -3.7210 H   0  0  0  0  0  0  0  0  0  0  0
   17.0600   -2.7060   -1.5830 H   0  0  0  0  0  0  0  0  0  0  0
   17.7530   -2.5830    1.7450 H   0  0  0  0  0  0  0  0  0  0  0
  1  2  1  0  0  0  0
  1  6  2  0  0  0  0
  1 17  1  0  0  0  0
  2  3  2  0  0  0  0
  2 18  1  0  0  0  0
  3  4  1  0  0  0  0
  3 19  1  0  0  0  0
  4  5  2  0  0  0  0
  4 20  1  0  0  0  0
  5  6  1  0  0  0  0
  5  7  1  0  0  0  0
  6 21  1  0  0  0  0
  7  8  1  0  0  0  0
  7 22  1  0  0  0  0
  8  9  2  0  0  0  0
  8 13  1  0  0  0  0
  9 10  1  0  0  0  0
  9 23  1  0  0  0  0
 10 11  2  0  0  0  0
 10 24  1  0  0  0  0
 11 12  1  0  0  0  0
 11 25  1  0  0  0  0
 12 13  2  0  0  0  0
 12 26  1  0  0  0  0
 13 14  1  0  0  0  0
 14 15  1  0  0  0  0
 14 16  2  0  0  0  0
 15 27  1  0  0  0  0
M  END
> <From>
www.bindingDB.org

> <BindingDB Reactant_set_id>
384832

> <Ligand InChI>
InChI=1S/C13H11NO2/c15-13(16)11-8-4-5-9-12(11)14-10-6-2-1-3-7-10/h1-9,14H,(H,15,16)

> <Ligand InChI Key>
ZWJINEZUASEZBH-UHFFFAOYSA-N

> <BindingDB MonomerID>
50337278

> <BindingDB Ligand Name>
2-(phenylamino)benzoic acid::2-Phenylamino-benzoic acid::CHEMBL23832::N-phenylanthranilic acid::US9271961, 2::phenylanthranilic acid

> <Target Name Assigned by Curator or DataSource>
Aldo-keto reductase family 1 member C2

> <Target Source Organism According to Curator or DataSource>
Homo sapiens

> <Ki (nM)>


> <IC50 (nM)>
 440

> <Kd (nM)>


> <EC50 (nM)>


> <kon (M-1-s-1)>


> <koff (s-1)>


> <pH>


> <Temp C>


> <Curation/DataSource>
US Patent

> <Article DOI>


> <PMID>


> <PubChem AID>


> <Patent Number>
US9271961

> <Authors>
Penning, TM; Adeniji, AO; Burns, MC; Winkler, J; Twenter, B

> <Institution>
The Trustees of the University of Pennsylvania

> <Link to Ligand in BindingDB>
http://www.bindingdb.org/bind/chemsearch/marvin/MolStructure.jsp?monomerid=50337278

> <Link to Ligand-Target Pair in BindingDB>
http://www.bindingdb.org/jsp/dbsearch/PrimarySearch_ki.jsp?energyterm=kJ/mole&tag=pol&polymerid=3022&target=Aldo-keto+reductase+family+1+member+C2&column=ki&startPg=0&Increment=50&submit=Search

> <Link to Ligand-Target Pair in BindingDB>
http://www.bindingdb.org/jsp/dbsearch/PrimarySearch_ki.jsp?energyterm=kJ/mole&tag=r21&monomerid=50337278&enzyme=Aldo-keto+reductase+family+1+member+C2&column=ki&startPg=0&Increment=50&submit=Search

> <Ligand HET ID in PDB>


> <PDB ID(s) for Ligand-Target Complex>


> <PubChem CID>
4386

> <PubChem SID>
125087380

> <ChEBI ID of Ligand>
34756

> <ChEMBL ID of Ligand>
CHEMBL23832

> <DrugBank ID of Ligand>


> <IUPHAR_GRAC ID of Ligand>
4182

> <KEGG ID of Ligand>
C13697

> <ZINC ID of Ligand>
ZINC00154642

> <Number of Protein Chains in Target (>1 implies a multichain complex)>
1

> <BindingDB Target Chain Sequence>
MDSKYQCVKLNDGHFMPVLGFGTYAPAEVPKSKALEAVKLAIEAGFHHIDSAHVYNNEEQVGLAIRSKIADGSVKREDIFYTSKLWSNSHRPELVRPALERSLKNLQLDYVDLYLIHFPVSVKPGEEVIPKDENGKILFDTVDLCATWEAMEKCKDAGLAKSIGVSNFNHRLLEMILNKPGLKYKPVCNQVECHPYFNQRKLLDFCKSKDIVLVAYSALGSHREEPWVDPNSPVLLEDPVLCALAKKHKRTPALIALRYQLQRGVVVLAKSYNEQRIRQNVQVFEFQLTSEEMKAIDGLNRNVRYLTLDIFAGPPNYPFSDEY

> <PDB ID(s) of Target Chain>
1IHI,1J96,1XJB,2HDJ,4JQ1,4JQ2,4JQ3,4JQ4,4JQA,4JTQ,4JTR,4L1W,4XO6,4XO7,6F2U

> <UniProt (SwissProt) Recommended Name of Target Chain>
Aldo-keto reductase family 1 member C2

> <UniProt (SwissProt) Entry Name of Target Chain>
AK1C2_HUMAN

> <UniProt (SwissProt) Primary ID of Target Chain>
P52895

> <UniProt (SwissProt) Secondary ID(s) of Target Chain>
A8K2N9,B4DKR9,Q14133,Q5SR16,Q7M4N1,Q96A71

> <UniProt (SwissProt) Alternative ID(s) of Target Chain>


> <UniProt (TrEMBL) Submitted Name of Target Chain>


> <UniProt (TrEMBL) Entry Name of Target Chain>


> <UniProt (TrEMBL) Primary ID of Target Chain>


> <UniProt (TrEMBL) Secondary ID(s) of Target Chain>


> <UniProt (TrEMBL) Alternative ID(s) of Target Chain>


$$$$
BindingDB_50337279_mol_1

Vconf v2.0 Academic SN VC001-00000579
 27 28  0  0  0  0  0  0  0  0999 V2000
   10.7430    1.8770    0.5490 C   0  0  0  0  0  0  0  0  0  0  0
   10.8520    0.5010    0.8480 C   0  0  0  0  0  0  0  0  0  0  0
   12.1080   -0.0950    1.0490 C   0  0  0  0  0  0  0  0  0  0  0
   13.2750    0.6790    0.9480 C   0  0  0  0  0  0  0  0  0  0  0
   13.1980    2.0480    0.6390 C   0  0  0  0  0  0  0  0  0  0  0
   11.9290    2.6390    0.4540 C   0  0  0  0  0  0  0  0  0  0  0
   14.3630    2.7480    0.5830 N   0  0  0  0  0  0  0  0  0  0  0
   14.6450    3.8150   -0.2130 C   0  0  0  0  0  0  0  0  0  0  0
   15.5270    4.7920    0.2900 C   0  0  0  0  0  0  0  0  0  0  0
   15.8800    5.9060   -0.4920 C   0  0  0  0  0  0  0  0  0  0  0
   15.3590    6.0470   -1.7890 C   0  0  0  0  0  0  0  0  0  0  0
   14.4910    5.0720   -2.3060 C   0  0  0  0  0  0  0  0  0  0  0
   14.1390    3.9580   -1.5240 C   0  0  0  0  0  0  0  0  0  0  0
    9.5070    2.4690    0.3580 C   0  0  0  0  0  0  0  0  0  0  0
    8.4630    1.8490    0.4940 O   0  0  0  0  0  0  0  0  0  0  0
    9.3930    3.7410    0.0140 O   0  0  0  0  0  0  0  0  0  0  0
   10.0120   -0.0760    0.9240 H   0  0  0  0  0  0  0  0  0  0  0
   12.1720   -1.0890    1.2690 H   0  0  0  0  0  0  0  0  0  0  0
   14.1830    0.2380    1.0990 H   0  0  0  0  0  0  0  0  0  0  0
   11.8690    3.6390    0.2520 H   0  0  0  0  0  0  0  0  0  0  0
   15.0720    2.4540    1.1760 H   0  0  0  0  0  0  0  0  0  0  0
   15.9130    4.6970    1.2300 H   0  0  0  0  0  0  0  0  0  0  0
   16.5150    6.6110   -0.1170 H   0  0  0  0  0  0  0  0  0  0  0
   15.6160    6.8560   -2.3570 H   0  0  0  0  0  0  0  0  0  0  0
   14.1180    5.1700   -3.2500 H   0  0  0  0  0  0  0  0  0  0  0
   13.5170    3.2500   -1.9150 H   0  0  0  0  0  0  0  0  0  0  0
    8.4650    4.0350   -0.0930 H   0  0  0  0  0  0  0  0  0  0  0
  1  2  1  0  0  0  0
  1  6  2  0  0  0  0
  1 14  1  0  0  0  0
  2  3  2  0  0  0  0
  2 17  1  0  0  0  0
  3  4  1  0  0  0  0
  3 18  1  0  0  0  0
  4  5  2  0  0  0  0
  4 19  1  0  0  0  0
  5  6  1  0  0  0  0
  5  7  1  0  0  0  0
  6 20  1  0  0  0  0
  7  8  1  0  0  0  0
  7 21  1  0  0  0  0
  8  9  2  0  0  0  0
  8 13  1  0  0  0  0
  9 10  1  0  0  0  0
  9 22  1  0  0  0  0
 10 11  2  0  0  0  0
 10 23  1  0  0  0  0
 11 12  1  0  0  0  0
 11 24  1  0  0  0  0
 12 13  2  0  0  0  0
 12 25  1  0  0  0  0
 13 26  1  0  0  0  0
 14 15  2  0  0  0  0
 14 16  1  0  0  0  0
 16 27  1  0  0  0  0
M  END
> <From>
www.bindingDB.org

> <BindingDB Reactant_set_id>
384833

> <Ligand InChI>
InChI=1S/C13H11NO2/c15-13(16)10-5-4-8-12(9-10)14-11-6-2-1-3-7-11/h1-9,14H,(H,15,16)

> <Ligand InChI Key>
RCHSJRJPIWLNPN-UHFFFAOYSA-N

> <BindingDB MonomerID>
50337279

> <BindingDB Ligand Name>
3-phenylamino benzoic acid::CHEMBL1682198::US9271961, 3

> <Target Name Assigned by Curator or DataSource>
Aldo-keto reductase family 1 member C2

> <Target Source Organism According to Curator or DataSource>
Homo sapiens

> <Ki (nM)>


> <IC50 (nM)>
 13000

> <Kd (nM)>


> <EC50 (nM)>


> <kon (M-1-s-1)>


> <koff (s-1)>


> <pH>


> <Temp C>


> <Curation/DataSource>
US Patent

> <Article DOI>


> <PMID>


> <PubChem AID>


> <Patent Number>
US9271961

> <Authors>
Penning, TM; Adeniji, AO; Burns, MC; Winkler, J; Twenter, B

> <Institution>
The Trustees of the University of Pennsylvania

> <Link to Ligand in BindingDB>
http://www.bindingdb.org/bind/chemsearch/marvin/MolStructure.jsp?monomerid=50337279

> <Link to Ligand-Target Pair in BindingDB>
http://www.bindingdb.org/jsp/dbsearch/PrimarySearch_ki.jsp?energyterm=kJ/mole&tag=pol&polymerid=3022&target=Aldo-keto+reductase+family+1+member+C2&column=ki&startPg=0&Increment=50&submit=Search

> <Link to Ligand-Target Pair in BindingDB>
http://www.bindingdb.org/jsp/dbsearch/PrimarySearch_ki.jsp?energyterm=kJ/mole&tag=r21&monomerid=50337279&enzyme=Aldo-keto+reductase+family+1+member+C2&column=ki&startPg=0&Increment=50&submit=Search

> <Ligand HET ID in PDB>


> <PDB ID(s) for Ligand-Target Complex>


> <PubChem CID>
12850341

> <PubChem SID>
125087381

> <ChEBI ID of Ligand>


> <ChEMBL ID of Ligand>
CHEMBL1682198

> <DrugBank ID of Ligand>


> <IUPHAR_GRAC ID of Ligand>


> <KEGG ID of Ligand>


> <ZINC ID of Ligand>
ZINC39316388

> <Number of Protein Chains in Target (>1 implies a multichain complex)>
1

> <BindingDB Target Chain Sequence>
MDSKYQCVKLNDGHFMPVLGFGTYAPAEVPKSKALEAVKLAIEAGFHHIDSAHVYNNEEQVGLAIRSKIADGSVKREDIFYTSKLWSNSHRPELVRPALERSLKNLQLDYVDLYLIHFPVSVKPGEEVIPKDENGKILFDTVDLCATWEAMEKCKDAGLAKSIGVSNFNHRLLEMILNKPGLKYKPVCNQVECHPYFNQRKLLDFCKSKDIVLVAYSALGSHREEPWVDPNSPVLLEDPVLCALAKKHKRTPALIALRYQLQRGVVVLAKSYNEQRIRQNVQVFEFQLTSEEMKAIDGLNRNVRYLTLDIFAGPPNYPFSDEY

> <PDB ID(s) of Target Chain>
1IHI,1J96,1XJB,2HDJ,4JQ1,4JQ2,4JQ3,4JQ4,4JQA,4JTQ,4JTR,4L1W,4XO6,4XO7,6F2U

> <UniProt (SwissProt) Recommended Name of Target Chain>
Aldo-keto reductase family 1 member C2

> <UniProt (SwissProt) Entry Name of Target Chain>
AK1C2_HUMAN

> <UniProt (SwissProt) Primary ID of Target Chain>
P52895

> <UniProt (SwissProt) Secondary ID(s) of Target Chain>
A8K2N9,B4DKR9,Q14133,Q5SR16,Q7M4N1,Q96A71

> <UniProt (SwissProt) Alternative ID(s) of Target Chain>


> <UniProt (TrEMBL) Submitted Name of Target Chain>


> <UniProt (TrEMBL) Entry Name of Target Chain>


> <UniProt (TrEMBL) Primary ID of Target Chain>


> <UniProt (TrEMBL) Secondary ID(s) of Target Chain>


> <UniProt (TrEMBL) Alternative ID(s) of Target Chain>


$$$$
BindingDB_50337286_mol_1

Vconf v2.0 Academic SN VC001-00000579
 39 40  0  0  0  0  0  0  0  0999 V2000
   -2.7040   -9.4990    0.6610 C   0  0  0  0  0  0  0  0  0  0  0
   -2.5570  -10.7750    0.0750 C   0  0  0  0  0  0  0  0  0  0  0
   -1.2860  -11.2720   -0.2570 C   0  0  0  0  0  0  0  0  0  0  0
   -0.1420  -10.5000   -0.0020 C   0  0  0  0  0  0  0  0  0  0  0
   -0.2560   -9.2310    0.5930 C   0  0  0  0  0  0  0  0  0  0  0
   -1.5410   -8.7350    0.9080 C   0  0  0  0  0  0  0  0  0  0  0
    0.8890   -8.5240    0.7950 N   0  0  0  0  0  0  0  0  0  0  0
    1.1270   -7.6100    1.7740 C   0  0  0  0  0  0  0  0  0  0  0
    0.6350   -7.7440    3.0880 C   0  0  0  0  0  0  0  0  0  0  0
    0.9250   -6.7690    4.0570 C   0  0  0  0  0  0  0  0  0  0  0
    1.7210   -5.6430    3.7510 C   0  0  0  0  0  0  0  0  0  0  0
    2.2250   -5.5330    2.4350 C   0  0  0  0  0  0  0  0  0  0  0
    1.9370   -6.5040    1.4620 C   0  0  0  0  0  0  0  0  0  0  0
   -3.9550   -9.0020    0.9850 C   0  0  0  0  0  0  0  0  0  0  0
   -4.9820   -9.6170    0.7370 O   0  0  0  0  0  0  0  0  0  0  0
   -4.1030   -7.8320    1.5850 O   0  0  0  0  0  0  0  0  0  0  0
    1.9990   -4.6220    4.8120 C   0  0  0  0  0  0  0  0  0  0  0
    0.6760   -4.0060    5.3220 C   0  0  0  0  0  0  0  0  0  0  0
    2.7330   -5.2730    6.0060 C   0  0  0  0  0  0  0  0  0  0  0
    2.8810   -3.4410    4.3390 C   0  0  0  0  0  0  0  0  0  0  0
   -3.3790  -11.3510   -0.1160 H   0  0  0  0  0  0  0  0  0  0  0
   -1.1940  -12.1940   -0.6850 H   0  0  0  0  0  0  0  0  0  0  0
    0.7770  -10.8680   -0.2490 H   0  0  0  0  0  0  0  0  0  0  0
   -1.6300   -7.8050    1.3180 H   0  0  0  0  0  0  0  0  0  0  0
    1.6120   -8.6840    0.1680 H   0  0  0  0  0  0  0  0  0  0  0
    0.0650   -8.5500    3.3440 H   0  0  0  0  0  0  0  0  0  0  0
    0.5500   -6.8870    4.9980 H   0  0  0  0  0  0  0  0  0  0  0
    2.8090   -4.7410    2.1680 H   0  0  0  0  0  0  0  0  0  0  0
    2.3140   -6.3980    0.5190 H   0  0  0  0  0  0  0  0  0  0  0
   -5.0380   -7.5990    1.7600 H   0  0  0  0  0  0  0  0  0  0  0
    0.8880   -3.2400    6.0690 H   0  0  0  0  0  0  0  0  0  0  0
    0.1320   -3.5470    4.4940 H   0  0  0  0  0  0  0  0  0  0  0
    0.0460   -4.7690    5.7820 H   0  0  0  0  0  0  0  0  0  0  0
    2.9590   -4.5170    6.7580 H   0  0  0  0  0  0  0  0  0  0  0
    2.1150   -6.0430    6.4680 H   0  0  0  0  0  0  0  0  0  0  0
    3.6690   -5.7230    5.6680 H   0  0  0  0  0  0  0  0  0  0  0
    3.0390   -2.7430    5.1620 H   0  0  0  0  0  0  0  0  0  0  0
    3.8540   -3.8060    4.0050 H   0  0  0  0  0  0  0  0  0  0  0
    2.3940   -2.9070    3.5220 H   0  0  0  0  0  0  0  0  0  0  0
  1  2  1  0  0  0  0
  1  6  2  0  0  0  0
  1 14  1  0  0  0  0
  2  3  2  0  0  0  0
  2 21  1  0  0  0  0
  3  4  1  0  0  0  0
  3 22  1  0  0  0  0
  4  5  2  0  0  0  0
  4 23  1  0  0  0  0
  5  6  1  0  0  0  0
  5  7  1  0  0  0  0
  6 24  1  0  0  0  0
  7  8  1  0  0  0  0
  7 25  1  0  0  0  0
  8  9  1  0  0  0  0
  8 13  2  0  0  0  0
  9 10  2  0  0  0  0
  9 26  1  0  0  0  0
 10 11  1  0  0  0  0
 10 27  1  0  0  0  0
 11 12  2  0  0  0  0
 11 17  1  0  0  0  0
 12 13  1  0  0  0  0
 12 28  1  0  0  0  0
 13 29  1  0  0  0  0
 14 15  2  0  0  0  0
 14 16  1  0  0  0  0
 16 30  1  0  0  0  0
 17 18  1  0  0  0  0
 17 19  1  0  0  0  0
 17 20  1  0  0  0  0
 18 31  1  0  0  0  0
 18 32  1  0  0  0  0
 18 33  1  0  0  0  0
 19 34  1  0  0  0  0
 19 35  1  0  0  0  0
 19 36  1  0  0  0  0
 20 37  1  0  0  0  0
 20 38  1  0  0  0  0
 20 39  1  0  0  0  0
M  END
> <From>
www.bindingDB.org

> <BindingDB Reactant_set_id>
50940653

> <Ligand InChI>
InChI=1S/C17H19NO2/c1-17(2,3)13-7-9-14(10-8-13)18-15-6-4-5-12(11-15)16(19)20/h4-11,18H,1-3H3,(H,19,20)

> <Ligand InChI Key>
KMYHPILDAZPTQP-UHFFFAOYSA-N

> <BindingDB MonomerID>
50337286

> <BindingDB Ligand Name>
3-[N-(4-tert-butylphenyl)amino]benzoic acid::CHEMBL1682205::US9271961, 10

> <Target Name Assigned by Curator or DataSource>
Aldo-keto reductase family 1 member C2

> <Target Source Organism According to Curator or DataSource>
Homo sapiens

> <Ki (nM)>


> <IC50 (nM)>
 31100

> <Kd (nM)>


> <EC50 (nM)>


> <kon (M-1-s-1)>


> <koff (s-1)>


> <pH>


> <Temp C>


> <Curation/DataSource>
ChEMBL

> <Article DOI>
10.1021/jm201547v

> <PMID>
22263837

> <PubChem AID>


> <Patent Number>


> <Authors>
Adeniji, AO; Twenter, BM; Byrns, MC; Jin, Y; Chen, M; Winkler, JD; Penning, TM

> <Institution>
University of Pennsylvania

> <Link to Ligand in BindingDB>
http://www.bindingdb.org/bind/chemsearch/marvin/MolStructure.jsp?monomerid=50337286

> <Link to Ligand-Target Pair in BindingDB>
http://www.bindingdb.org/jsp/dbsearch/PrimarySearch_ki.jsp?energyterm=kJ/mole&tag=pol&polymerid=3022&target=Aldo-keto+reductase+family+1+member+C2&column=ki&startPg=0&Increment=50&submit=Search

> <Link to Ligand-Target Pair in BindingDB>
http://www.bindingdb.org/jsp/dbsearch/PrimarySearch_ki.jsp?energyterm=kJ/mole&tag=r21&monomerid=50337286&enzyme=Aldo-keto+reductase+family+1+member+C2&column=ki&startPg=0&Increment=50&submit=Search

> <Ligand HET ID in PDB>


> <PDB ID(s) for Ligand-Target Complex>


> <PubChem CID>
53316889

> <PubChem SID>
125087388

> <ChEBI ID of Ligand>


> <ChEMBL ID of Ligand>
CHEMBL1682205

> <DrugBank ID of Ligand>


> <IUPHAR_GRAC ID of Ligand>


> <KEGG ID of Ligand>


> <ZINC ID of Ligand>
ZINC66077713

> <Number of Protein Chains in Target (>1 implies a multichain complex)>
1

> <BindingDB Target Chain Sequence>
MDSKYQCVKLNDGHFMPVLGFGTYAPAEVPKSKALEAVKLAIEAGFHHIDSAHVYNNEEQVGLAIRSKIADGSVKREDIFYTSKLWSNSHRPELVRPALERSLKNLQLDYVDLYLIHFPVSVKPGEEVIPKDENGKILFDTVDLCATWEAMEKCKDAGLAKSIGVSNFNHRLLEMILNKPGLKYKPVCNQVECHPYFNQRKLLDFCKSKDIVLVAYSALGSHREEPWVDPNSPVLLEDPVLCALAKKHKRTPALIALRYQLQRGVVVLAKSYNEQRIRQNVQVFEFQLTSEEMKAIDGLNRNVRYLTLDIFAGPPNYPFSDEY

> <PDB ID(s) of Target Chain>
1IHI,1J96,1XJB,2HDJ,4JQ1,4JQ2,4JQ3,4JQ4,4JQA,4JTQ,4JTR,4L1W,4XO6,4XO7,6F2U

> <UniProt (SwissProt) Recommended Name of Target Chain>
Aldo-keto reductase family 1 member C2

> <UniProt (SwissProt) Entry Name of Target Chain>
AK1C2_HUMAN

> <UniProt (SwissProt) Primary ID of Target Chain>
P52895

> <UniProt (SwissProt) Secondary ID(s) of Target Chain>
A8K2N9,B4DKR9,Q14133,Q5SR16,Q7M4N1,Q96A71

> <UniProt (SwissProt) Alternative ID(s) of Target Chain>


> <UniProt (TrEMBL) Submitted Name of Target Chain>


> <UniProt (TrEMBL) Entry Name of Target Chain>


> <UniProt (TrEMBL) Primary ID of Target Chain>


> <UniProt (TrEMBL) Secondary ID(s) of Target Chain>


> <UniProt (TrEMBL) Alternative ID(s) of Target Chain>


$$$$
BindingDB_50337288_mol_1

Vconf v2.0 Academic SN VC001-00000579
 30 31  0  0  0  0  0  0  0  0999 V2000
   12.4930   -9.1400    0.6510 C   0  0  0  0  0  0  0  0  0  0  0
   12.6220  -10.4830    0.2310 C   0  0  0  0  0  0  0  0  0  0  0
   13.8880  -11.0570    0.0360 C   0  0  0  0  0  0  0  0  0  0  0
   15.0470  -10.2980    0.2660 C   0  0  0  0  0  0  0  0  0  0  0
   14.9490   -8.9640    0.7010 C   0  0  0  0  0  0  0  0  0  0  0
   13.6700   -8.3920    0.8770 C   0  0  0  0  0  0  0  0  0  0  0
   16.1050   -8.2720    0.8910 N   0  0  0  0  0  0  0  0  0  0  0
   16.3360   -7.3010    1.8140 C   0  0  0  0  0  0  0  0  0  0  0
   15.7690   -7.3140    3.1070 C   0  0  0  0  0  0  0  0  0  0  0
   16.0630   -6.2910    4.0250 C   0  0  0  0  0  0  0  0  0  0  0
   16.9350   -5.2440    3.6690 C   0  0  0  0  0  0  0  0  0  0  0
   17.5130   -5.2370    2.3840 C   0  0  0  0  0  0  0  0  0  0  0
   17.2180   -6.2610    1.4670 C   0  0  0  0  0  0  0  0  0  0  0
   11.2480   -8.5650    0.8350 C   0  0  0  0  0  0  0  0  0  0  0
   10.2130   -9.1950    0.6780 O   0  0  0  0  0  0  0  0  0  0  0
   11.1150   -7.2990    1.1920 O   0  0  0  0  0  0  0  0  0  0  0
   17.2320   -4.1800    4.6400 C   0  0  0  0  0  0  0  0  0  0  0
   11.7890  -11.0490    0.0610 H   0  0  0  0  0  0  0  0  0  0  0
   13.9670  -12.0270   -0.2730 H   0  0  0  0  0  0  0  0  0  0  0
   15.9630  -10.7230    0.1190 H   0  0  0  0  0  0  0  0  0  0  0
   13.5980   -7.4170    1.1700 H   0  0  0  0  0  0  0  0  0  0  0
   16.8440   -8.4950    0.3030 H   0  0  0  0  0  0  0  0  0  0  0
   15.1440   -8.0700    3.3860 H   0  0  0  0  0  0  0  0  0  0  0
   15.6430   -6.3110    4.9550 H   0  0  0  0  0  0  0  0  0  0  0
   18.1500   -4.4880    2.1130 H   0  0  0  0  0  0  0  0  0  0  0
   17.6470   -6.2420    0.5400 H   0  0  0  0  0  0  0  0  0  0  0
   10.1820   -7.0150    1.2840 H   0  0  0  0  0  0  0  0  0  0  0
   17.9210   -3.4450    4.2210 H   0  0  0  0  0  0  0  0  0  0  0
   16.3080   -3.6730    4.9200 H   0  0  0  0  0  0  0  0  0  0  0
   17.6850   -4.6150    5.5320 H   0  0  0  0  0  0  0  0  0  0  0
  1  2  1  0  0  0  0
  1  6  2  0  0  0  0
  1 14  1  0  0  0  0
  2  3  2  0  0  0  0
  2 18  1  0  0  0  0
  3  4  1  0  0  0  0
  3 19  1  0  0  0  0
  4  5  2  0  0  0  0
  4 20  1  0  0  0  0
  5  6  1  0  0  0  0
  5  7  1  0  0  0  0
  6 21  1  0  0  0  0
  7  8  1  0  0  0  0
  7 22  1  0  0  0  0
  8  9  2  0  0  0  0
  8 13  1  0  0  0  0
  9 10  1  0  0  0  0
  9 23  1  0  0  0  0
 10 11  2  0  0  0  0
 10 24  1  0  0  0  0
 11 12  1  0  0  0  0
 11 17  1  0  0  0  0
 12 13  2  0  0  0  0
 12 25  1  0  0  0  0
 13 26  1  0  0  0  0
 14 15  2  0  0  0  0
 14 16  1  0  0  0  0
 16 27  1  0  0  0  0
 17 28  1  0  0  0  0
 17 29  1  0  0  0  0
 17 30  1  0  0  0  0
M  END
> <From>
www.bindingDB.org

> <BindingDB Reactant_set_id>
50940652

> <Ligand InChI>
InChI=1S/C14H13NO2/c1-10-5-7-12(8-6-10)15-13-4-2-3-11(9-13)14(16)17/h2-9,15H,1H3,(H,16,17)

> <Ligand InChI Key>
PFABVCLRTFWWEY-UHFFFAOYSA-N

> <BindingDB MonomerID>
50337288

> <BindingDB Ligand Name>
3-[N-(4-methylphenyl)amino]benzoic acid::CHEMBL1682207::US9271961, 12

> <Target Name Assigned by Curator or DataSource>
Aldo-keto reductase family 1 member C2

> <Target Source Organism According to Curator or DataSource>
Homo sapiens

> <Ki (nM)>


> <IC50 (nM)>
 56200

> <Kd (nM)>


> <EC50 (nM)>


> <kon (M-1-s-1)>


> <koff (s-1)>


> <pH>


> <Temp C>


> <Curation/DataSource>
ChEMBL

> <Article DOI>
10.1021/jm201547v

> <PMID>
22263837

> <PubChem AID>


> <Patent Number>


> <Authors>
Adeniji, AO; Twenter, BM; Byrns, MC; Jin, Y; Chen, M; Winkler, JD; Penning, TM

> <Institution>
University of Pennsylvania

> <Link to Ligand in BindingDB>
http://www.bindingdb.org/bind/chemsearch/marvin/MolStructure.jsp?monomerid=50337288

> <Link to Ligand-Target Pair in BindingDB>
http://www.bindingdb.org/jsp/dbsearch/PrimarySearch_ki.jsp?energyterm=kJ/mole&tag=pol&polymerid=3022&target=Aldo-keto+reductase+family+1+member+C2&column=ki&startPg=0&Increment=50&submit=Search

> <Link to Ligand-Target Pair in BindingDB>
http://www.bindingdb.org/jsp/dbsearch/PrimarySearch_ki.jsp?energyterm=kJ/mole&tag=r21&monomerid=50337288&enzyme=Aldo-keto+reductase+family+1+member+C2&column=ki&startPg=0&Increment=50&submit=Search

> <Ligand HET ID in PDB>


> <PDB ID(s) for Ligand-Target Complex>


> <PubChem CID>
53323514

> <PubChem SID>
125087390

> <ChEBI ID of Ligand>


> <ChEMBL ID of Ligand>
CHEMBL1682207

> <DrugBank ID of Ligand>


> <IUPHAR_GRAC ID of Ligand>


> <KEGG ID of Ligand>


> <ZINC ID of Ligand>
ZINC66078767

> <Number of Protein Chains in Target (>1 implies a multichain complex)>
1

> <BindingDB Target Chain Sequence>
MDSKYQCVKLNDGHFMPVLGFGTYAPAEVPKSKALEAVKLAIEAGFHHIDSAHVYNNEEQVGLAIRSKIADGSVKREDIFYTSKLWSNSHRPELVRPALERSLKNLQLDYVDLYLIHFPVSVKPGEEVIPKDENGKILFDTVDLCATWEAMEKCKDAGLAKSIGVSNFNHRLLEMILNKPGLKYKPVCNQVECHPYFNQRKLLDFCKSKDIVLVAYSALGSHREEPWVDPNSPVLLEDPVLCALAKKHKRTPALIALRYQLQRGVVVLAKSYNEQRIRQNVQVFEFQLTSEEMKAIDGLNRNVRYLTLDIFAGPPNYPFSDEY

> <PDB ID(s) of Target Chain>
1IHI,1J96,1XJB,2HDJ,4JQ1,4JQ2,4JQ3,4JQ4,4JQA,4JTQ,4JTR,4L1W,4XO6,4XO7,6F2U

> <UniProt (SwissProt) Recommended Name of Target Chain>
Aldo-keto reductase family 1 member C2

> <UniProt (SwissProt) Entry Name of Target Chain>
AK1C2_HUMAN

> <UniProt (SwissProt) Primary ID of Target Chain>
P52895

> <UniProt (SwissProt) Secondary ID(s) of Target Chain>
A8K2N9,B4DKR9,Q14133,Q5SR16,Q7M4N1,Q96A71

> <UniProt (SwissProt) Alternative ID(s) of Target Chain>


> <UniProt (TrEMBL) Submitted Name of Target Chain>


> <UniProt (TrEMBL) Entry Name of Target Chain>


> <UniProt (TrEMBL) Primary ID of Target Chain>


> <UniProt (TrEMBL) Secondary ID(s) of Target Chain>


> <UniProt (TrEMBL) Alternative ID(s) of Target Chain>


$$$$
BindingDB_50385684_mol_1

Vconf v2.0 Academic SN VC001-00000579
 30 31  0  0  0  0  0  0  0  0999 V2000
   35.5380  -14.4190    1.0450 C   0  0  0  0  0  0  0  0  0  0  0
   35.4260  -15.8190    1.0990 C   0  0  0  0  0  0  0  0  0  0  0
   36.5810  -16.6160    1.1140 C   0  0  0  0  0  0  0  0  0  0  0
   37.8530  -16.0200    1.0650 C   0  0  0  0  0  0  0  0  0  0  0
   37.9570  -14.6150    1.0270 C   0  0  0  0  0  0  0  0  0  0  0
   36.8050  -13.7960    1.0100 C   0  0  0  0  0  0  0  0  0  0  0
   38.9520  -16.8130    1.1050 N   0  0  0  0  0  0  0  0  0  0  0
   39.9240  -16.9110    0.1550 C   0  0  0  0  0  0  0  0  0  0  0
   39.9230  -16.2040   -1.0680 C   0  0  0  0  0  0  0  0  0  0  0
   40.9660  -16.3730   -1.9950 C   0  0  0  0  0  0  0  0  0  0  0
   42.0350  -17.2560   -1.7270 C   0  0  0  0  0  0  0  0  0  0  0
   42.0310  -17.9630   -0.5050 C   0  0  0  0  0  0  0  0  0  0  0
   40.9880  -17.7930    0.4210 C   0  0  0  0  0  0  0  0  0  0  0
   43.0830  -17.4320   -2.6570 C   0  0  0  0  0  0  0  0  0  0  0
   44.1090  -18.2760   -2.4090 O   0  0  0  0  0  0  0  0  0  0  0
   43.1070  -16.8180   -3.7470 O   0  0  0  0  0  0  0  0  0  0  0
   36.9110  -12.4170    0.9610 C   0  0  0  0  0  0  0  0  0  0  0
   35.8410  -11.6390    0.9630 O   0  0  0  0  0  0  0  0  0  0  0
   37.9920  -11.8500    0.9110 O   0  0  0  0  0  0  0  0  0  0  0
   34.6880  -13.8550    1.0330 H   0  0  0  0  0  0  0  0  0  0  0
   34.5040  -16.2550    1.1290 H   0  0  0  0  0  0  0  0  0  0  0
   36.4920  -17.6330    1.1550 H   0  0  0  0  0  0  0  0  0  0  0
   38.8850  -14.1860    1.0110 H   0  0  0  0  0  0  0  0  0  0  0
   39.0370  -17.3940    1.8770 H   0  0  0  0  0  0  0  0  0  0  0
   39.1600  -15.5670   -1.2970 H   0  0  0  0  0  0  0  0  0  0  0
   40.9370  -15.8480   -2.8710 H   0  0  0  0  0  0  0  0  0  0  0
   42.7890  -18.6100   -0.2810 H   0  0  0  0  0  0  0  0  0  0  0
   41.0090  -18.3170    1.2960 H   0  0  0  0  0  0  0  0  0  0  0
   44.7690  -18.3100   -3.1310 H   0  0  0  0  0  0  0  0  0  0  0
   36.0530  -10.6830    0.9230 H   0  0  0  0  0  0  0  0  0  0  0
  1  2  2  0  0  0  0
  1  6  1  0  0  0  0
  1 20  1  0  0  0  0
  2  3  1  0  0  0  0
  2 21  1  0  0  0  0
  3  4  2  0  0  0  0
  3 22  1  0  0  0  0
  4  5  1  0  0  0  0
  4  7  1  0  0  0  0
  5  6  2  0  0  0  0
  5 23  1  0  0  0  0
  6 17  1  0  0  0  0
  7  8  1  0  0  0  0
  7 24  1  0  0  0  0
  8  9  2  0  0  0  0
  8 13  1  0  0  0  0
  9 10  1  0  0  0  0
  9 25  1  0  0  0  0
 10 11  2  0  0  0  0
 10 26  1  0  0  0  0
 11 12  1  0  0  0  0
 11 14  1  0  0  0  0
 12 13  2  0  0  0  0
 12 27  1  0  0  0  0
 13 28  1  0  0  0  0
 14 15  1  0  0  0  0
 14 16  2  0  0  0  0
 15 29  1  0  0  0  0
 17 18  1  0  0  0  0
 17 19  2  0  0  0  0
 18 30  1  0  0  0  0
M  END
> <From>
www.bindingDB.org

> <BindingDB Reactant_set_id>
50940654

> <Ligand InChI>
InChI=1S/C14H11NO4/c16-13(17)9-4-6-11(7-5-9)15-12-3-1-2-10(8-12)14(18)19/h1-8,15H,(H,16,17)(H,18,19)

> <Ligand InChI Key>
ASTBUVHOVFGCAV-UHFFFAOYSA-N

> <BindingDB MonomerID>
50385684

> <BindingDB Ligand Name>
CHEMBL2041321

> <Target Name Assigned by Curator or DataSource>
Aldo-keto reductase family 1 member C2

> <Target Source Organism According to Curator or DataSource>
Homo sapiens

> <Ki (nM)>


> <IC50 (nM)>
 19900

> <Kd (nM)>


> <EC50 (nM)>


> <kon (M-1-s-1)>


> <koff (s-1)>


> <pH>


> <Temp C>


> <Curation/DataSource>
ChEMBL

> <Article DOI>
10.1021/jm201547v

> <PMID>
22263837

> <PubChem AID>


> <Patent Number>


> <Authors>
Adeniji, AO; Twenter, BM; Byrns, MC; Jin, Y; Chen, M; Winkler, JD; Penning, TM

> <Institution>
University of Pennsylvania

> <Link to Ligand in BindingDB>
http://www.bindingdb.org/bind/chemsearch/marvin/MolStructure.jsp?monomerid=50385684

> <Link to Ligand-Target Pair in BindingDB>
http://www.bindingdb.org/jsp/dbsearch/PrimarySearch_ki.jsp?energyterm=kJ/mole&tag=pol&polymerid=3022&target=Aldo-keto+reductase+family+1+member+C2&column=ki&startPg=0&Increment=50&submit=Search

> <Link to Ligand-Target Pair in BindingDB>
http://www.bindingdb.org/jsp/dbsearch/PrimarySearch_ki.jsp?energyterm=kJ/mole&tag=r21&monomerid=50385684&enzyme=Aldo-keto+reductase+family+1+member+C2&column=ki&startPg=0&Increment=50&submit=Search

> <Ligand HET ID in PDB>


> <PDB ID(s) for Ligand-Target Complex>


> <PubChem CID>
70690235

> <PubChem SID>
160864767

> <ChEBI ID of Ligand>


> <ChEMBL ID of Ligand>
CHEMBL2041321

> <DrugBank ID of Ligand>


> <IUPHAR_GRAC ID of Ligand>


> <KEGG ID of Ligand>


> <ZINC ID of Ligand>
ZINC82715691

> <Number of Protein Chains in Target (>1 implies a multichain complex)>
1

> <BindingDB Target Chain Sequence>
MDSKYQCVKLNDGHFMPVLGFGTYAPAEVPKSKALEAVKLAIEAGFHHIDSAHVYNNEEQVGLAIRSKIADGSVKREDIFYTSKLWSNSHRPELVRPALERSLKNLQLDYVDLYLIHFPVSVKPGEEVIPKDENGKILFDTVDLCATWEAMEKCKDAGLAKSIGVSNFNHRLLEMILNKPGLKYKPVCNQVECHPYFNQRKLLDFCKSKDIVLVAYSALGSHREEPWVDPNSPVLLEDPVLCALAKKHKRTPALIALRYQLQRGVVVLAKSYNEQRIRQNVQVFEFQLTSEEMKAIDGLNRNVRYLTLDIFAGPPNYPFSDEY

> <PDB ID(s) of Target Chain>
1IHI,1J96,1XJB,2HDJ,4JQ1,4JQ2,4JQ3,4JQ4,4JQA,4JTQ,4JTR,4L1W,4XO6,4XO7,6F2U

> <UniProt (SwissProt) Recommended Name of Target Chain>
Aldo-keto reductase family 1 member C2

> <UniProt (SwissProt) Entry Name of Target Chain>
AK1C2_HUMAN

> <UniProt (SwissProt) Primary ID of Target Chain>
P52895

> <UniProt (SwissProt) Secondary ID(s) of Target Chain>
A8K2N9,B4DKR9,Q14133,Q5SR16,Q7M4N1,Q96A71

> <UniProt (SwissProt) Alternative ID(s) of Target Chain>


> <UniProt (TrEMBL) Submitted Name of Target Chain>


> <UniProt (TrEMBL) Entry Name of Target Chain>


> <UniProt (TrEMBL) Primary ID of Target Chain>


> <UniProt (TrEMBL) Secondary ID(s) of Target Chain>


> <UniProt (TrEMBL) Alternative ID(s) of Target Chain>


$$$$
BindingDB_50385685_mol_1

Vconf v2.0 Academic SN VC001-00000579
 33 34  0  0  0  0  0  0  0  0999 V2000
    1.6720  -23.4960    0.0450 C   0  0  0  0  0  0  0  0  0  0  0
    1.8300  -24.8290   -0.3640 C   0  0  0  0  0  0  0  0  0  0  0
    2.8380  -25.6230    0.2040 C   0  0  0  0  0  0  0  0  0  0  0
    3.6960  -25.0950    1.1870 C   0  0  0  0  0  0  0  0  0  0  0
    3.5260  -23.7510    1.5890 C   0  0  0  0  0  0  0  0  0  0  0
    2.5190  -22.9360    1.0270 C   0  0  0  0  0  0  0  0  0  0  0
    4.6470  -25.9290    1.6930 N   0  0  0  0  0  0  0  0  0  0  0
    5.5360  -25.6180    2.6700 C   0  0  0  0  0  0  0  0  0  0  0
    6.7930  -25.0640    2.3310 C   0  0  0  0  0  0  0  0  0  0  0
    7.7120  -24.7570    3.3530 C   0  0  0  0  0  0  0  0  0  0  0
    7.3900  -25.0020    4.6970 C   0  0  0  0  0  0  0  0  0  0  0
    6.1450  -25.5600    5.0290 C   0  0  0  0  0  0  0  0  0  0  0
    5.2120  -25.8750    4.0220 C   0  0  0  0  0  0  0  0  0  0  0
    2.3690  -21.6200    1.4310 C   0  0  0  0  0  0  0  0  0  0  0
    3.1610  -21.0800    2.3430 O   0  0  0  0  0  0  0  0  0  0  0
    1.5030  -20.8930    0.9680 O   0  0  0  0  0  0  0  0  0  0  0
    3.9090  -26.4640    4.3820 C   0  0  0  0  0  0  0  0  0  0  0
    7.1430  -24.8050    0.9230 C   0  0  0  0  0  0  0  0  0  0  0
    0.9340  -22.9320   -0.3790 H   0  0  0  0  0  0  0  0  0  0  0
    1.2120  -25.2220   -1.0750 H   0  0  0  0  0  0  0  0  0  0  0
    2.9450  -26.5910   -0.1010 H   0  0  0  0  0  0  0  0  0  0  0
    4.1450  -23.3600    2.3010 H   0  0  0  0  0  0  0  0  0  0  0
    4.6830  -26.8310    1.3370 H   0  0  0  0  0  0  0  0  0  0  0
    8.6200  -24.3530    3.1220 H   0  0  0  0  0  0  0  0  0  0  0
    8.0600  -24.7770    5.4320 H   0  0  0  0  0  0  0  0  0  0  0
    5.9210  -25.7380    6.0090 H   0  0  0  0  0  0  0  0  0  0  0
    2.9490  -20.1450    2.5400 H   0  0  0  0  0  0  0  0  0  0  0
    3.8210  -26.6060    5.4600 H   0  0  0  0  0  0  0  0  0  0  0
    3.1060  -25.8040    4.0510 H   0  0  0  0  0  0  0  0  0  0  0
    3.8000  -27.4330    3.8930 H   0  0  0  0  0  0  0  0  0  0  0
    8.1480  -24.3900    0.8330 H   0  0  0  0  0  0  0  0  0  0  0
    7.1000  -25.7380    0.3580 H   0  0  0  0  0  0  0  0  0  0  0
    6.4350  -24.0950    0.4940 H   0  0  0  0  0  0  0  0  0  0  0
  1  2  2  0  0  0  0
  1  6  1  0  0  0  0
  1 19  1  0  0  0  0
  2  3  1  0  0  0  0
  2 20  1  0  0  0  0
  3  4  2  0  0  0  0
  3 21  1  0  0  0  0
  4  5  1  0  0  0  0
  4  7  1  0  0  0  0
  5  6  2  0  0  0  0
  5 22  1  0  0  0  0
  6 14  1  0  0  0  0
  7  8  1  0  0  0  0
  7 23  1  0  0  0  0
  8  9  2  0  0  0  0
  8 13  1  0  0  0  0
  9 10  1  0  0  0  0
  9 18  1  0  0  0  0
 10 11  2  0  0  0  0
 10 24  1  0  0  0  0
 11 12  1  0  0  0  0
 11 25  1  0  0  0  0
 12 13  2  0  0  0  0
 12 26  1  0  0  0  0
 13 17  1  0  0  0  0
 14 15  1  0  0  0  0
 14 16  2  0  0  0  0
 15 27  1  0  0  0  0
 17 28  1  0  0  0  0
 17 29  1  0  0  0  0
 17 30  1  0  0  0  0
 18 31  1  0  0  0  0
 18 32  1  0  0  0  0
 18 33  1  0  0  0  0
M  END
> <From>
www.bindingDB.org

> <BindingDB Reactant_set_id>
50940655

> <Ligand InChI>
InChI=1S/C15H15NO2/c1-10-5-3-6-11(2)14(10)16-13-8-4-7-12(9-13)15(17)18/h3-9,16H,1-2H3,(H,17,18)

> <Ligand InChI Key>
UZFKWYZJRFXDGQ-UHFFFAOYSA-N

> <BindingDB MonomerID>
50385685

> <BindingDB Ligand Name>
CHEMBL2041553

> <Target Name Assigned by Curator or DataSource>
Aldo-keto reductase family 1 member C2

> <Target Source Organism According to Curator or DataSource>
Homo sapiens

> <Ki (nM)>


> <IC50 (nM)>
 10300

> <Kd (nM)>


> <EC50 (nM)>


> <kon (M-1-s-1)>


> <koff (s-1)>


> <pH>


> <Temp C>


> <Curation/DataSource>
ChEMBL

> <Article DOI>
10.1021/jm201547v

> <PMID>
22263837

> <PubChem AID>


> <Patent Number>


> <Authors>
Adeniji, AO; Twenter, BM; Byrns, MC; Jin, Y; Chen, M; Winkler, JD; Penning, TM

> <Institution>
University of Pennsylvania

> <Link to Ligand in BindingDB>
http://www.bindingdb.org/bind/chemsearch/marvin/MolStructure.jsp?monomerid=50385685

> <Link to Ligand-Target Pair in BindingDB>
http://www.bindingdb.org/jsp/dbsearch/PrimarySearch_ki.jsp?energyterm=kJ/mole&tag=pol&polymerid=3022&target=Aldo-keto+reductase+family+1+member+C2&column=ki&startPg=0&Increment=50&submit=Search

> <Link to Ligand-Target Pair in BindingDB>
http://www.bindingdb.org/jsp/dbsearch/PrimarySearch_ki.jsp?energyterm=kJ/mole&tag=r21&monomerid=50385685&enzyme=Aldo-keto+reductase+family+1+member+C2&column=ki&startPg=0&Increment=50&submit=Search

> <Ligand HET ID in PDB>


> <PDB ID(s) for Ligand-Target Complex>


> <PubChem CID>
70688223

> <PubChem SID>
160864768

> <ChEBI ID of Ligand>


> <ChEMBL ID of Ligand>
CHEMBL2041553

> <DrugBank ID of Ligand>


> <IUPHAR_GRAC ID of Ligand>


> <KEGG ID of Ligand>


> <ZINC ID of Ligand>
ZINC82715684

> <Number of Protein Chains in Target (>1 implies a multichain complex)>
1

> <BindingDB Target Chain Sequence>
MDSKYQCVKLNDGHFMPVLGFGTYAPAEVPKSKALEAVKLAIEAGFHHIDSAHVYNNEEQVGLAIRSKIADGSVKREDIFYTSKLWSNSHRPELVRPALERSLKNLQLDYVDLYLIHFPVSVKPGEEVIPKDENGKILFDTVDLCATWEAMEKCKDAGLAKSIGVSNFNHRLLEMILNKPGLKYKPVCNQVECHPYFNQRKLLDFCKSKDIVLVAYSALGSHREEPWVDPNSPVLLEDPVLCALAKKHKRTPALIALRYQLQRGVVVLAKSYNEQRIRQNVQVFEFQLTSEEMKAIDGLNRNVRYLTLDIFAGPPNYPFSDEY

> <PDB ID(s) of Target Chain>
1IHI,1J96,1XJB,2HDJ,4JQ1,4JQ2,4JQ3,4JQ4,4JQA,4JTQ,4JTR,4L1W,4XO6,4XO7,6F2U

> <UniProt (SwissProt) Recommended Name of Target Chain>
Aldo-keto reductase family 1 member C2

> <UniProt (SwissProt) Entry Name of Target Chain>
AK1C2_HUMAN

> <UniProt (SwissProt) Primary ID of Target Chain>
P52895

> <UniProt (SwissProt) Secondary ID(s) of Target Chain>
A8K2N9,B4DKR9,Q14133,Q5SR16,Q7M4N1,Q96A71

> <UniProt (SwissProt) Alternative ID(s) of Target Chain>


> <UniProt (TrEMBL) Submitted Name of Target Chain>


> <UniProt (TrEMBL) Entry Name of Target Chain>


> <UniProt (TrEMBL) Primary ID of Target Chain>


> <UniProt (TrEMBL) Secondary ID(s) of Target Chain>


> <UniProt (TrEMBL) Alternative ID(s) of Target Chain>


$$$$
BindingDB_50385686_mol_1

Vconf v2.0 Academic SN VC001-00000579
 35 36  0  0  0  0  0  0  0  0999 V2000
    5.8290  -22.6580    0.3050 C   0  0  0  0  0  0  0  0  0  0  0
    5.6590  -24.0360    0.0930 C   0  0  0  0  0  0  0  0  0  0  0
    6.6740  -24.9340    0.4610 C   0  0  0  0  0  0  0  0  0  0  0
    7.8590  -24.4530    1.0470 C   0  0  0  0  0  0  0  0  0  0  0
    8.0270  -23.0710    1.2500 C   0  0  0  0  0  0  0  0  0  0  0
    7.0150  -22.1540    0.8850 C   0  0  0  0  0  0  0  0  0  0  0
    8.8460  -25.3150    1.3910 N   0  0  0  0  0  0  0  0  0  0  0
    8.9860  -25.9610    2.5910 C   0  0  0  0  0  0  0  0  0  0  0
    8.0570  -25.7640    3.6390 C   0  0  0  0  0  0  0  0  0  0  0
    8.1960  -26.4220    4.8680 C   0  0  0  0  0  0  0  0  0  0  0
    9.2700  -27.3030    5.0980 C   0  0  0  0  0  0  0  0  0  0  0
   10.1980  -27.5010    4.0530 C   0  0  0  0  0  0  0  0  0  0  0
   10.0780  -26.8480    2.8030 C   0  0  0  0  0  0  0  0  0  0  0
    7.1870  -20.7960    1.0930 C   0  0  0  0  0  0  0  0  0  0  0
    8.2890  -20.3130    1.6420 O   0  0  0  0  0  0  0  0  0  0  0
    6.3340  -19.9790    0.7810 O   0  0  0  0  0  0  0  0  0  0  0
   11.0660  -27.1180    1.8170 C   0  0  0  0  0  0  0  0  0  0  0
   12.0880  -27.9710    2.0570 O   0  0  0  0  0  0  0  0  0  0  0
   11.0570  -26.5980    0.6800 O   0  0  0  0  0  0  0  0  0  0  0
    9.4040  -27.9650    6.3470 C   0  0  0  0  0  0  0  0  0  0  0
   10.5030  -28.8970    6.6430 C   0  0  0  0  0  0  0  0  0  0  0
    8.5690  -27.7730    7.2600 O   0  0  0  0  0  0  0  0  0  0  0
    5.0810  -22.0190    0.0310 H   0  0  0  0  0  0  0  0  0  0  0
    4.7980  -24.3850   -0.3290 H   0  0  0  0  0  0  0  0  0  0  0
    6.5490  -25.9340    0.3040 H   0  0  0  0  0  0  0  0  0  0  0
    8.8950  -22.7330    1.6690 H   0  0  0  0  0  0  0  0  0  0  0
    9.5160  -25.4850    0.7130 H   0  0  0  0  0  0  0  0  0  0  0
    7.2650  -25.1330    3.5150 H   0  0  0  0  0  0  0  0  0  0  0
    7.5030  -26.2510    5.5990 H   0  0  0  0  0  0  0  0  0  0  0
   10.9820  -28.1390    4.2060 H   0  0  0  0  0  0  0  0  0  0  0
    8.2850  -19.3380    1.7340 H   0  0  0  0  0  0  0  0  0  0  0
   12.6970  -28.0740    1.2980 H   0  0  0  0  0  0  0  0  0  0  0
   10.3980  -29.2840    7.6580 H   0  0  0  0  0  0  0  0  0  0  0
   10.4790  -29.7330    5.9440 H   0  0  0  0  0  0  0  0  0  0  0
   11.4590  -28.3790    6.5610 H   0  0  0  0  0  0  0  0  0  0  0
  1  2  2  0  0  0  0
  1  6  1  0  0  0  0
  1 23  1  0  0  0  0
  2  3  1  0  0  0  0
  2 24  1  0  0  0  0
  3  4  2  0  0  0  0
  3 25  1  0  0  0  0
  4  5  1  0  0  0  0
  4  7  1  0  0  0  0
  5  6  2  0  0  0  0
  5 26  1  0  0  0  0
  6 14  1  0  0  0  0
  7  8  1  0  0  0  0
  7 27  1  0  0  0  0
  8  9  2  0  0  0  0
  8 13  1  0  0  0  0
  9 10  1  0  0  0  0
  9 28  1  0  0  0  0
 10 11  2  0  0  0  0
 10 29  1  0  0  0  0
 11 12  1  0  0  0  0
 11 20  1  0  0  0  0
 12 13  2  0  0  0  0
 12 30  1  0  0  0  0
 13 17  1  0  0  0  0
 14 15  1  0  0  0  0
 14 16  2  0  0  0  0
 15 31  1  0  0  0  0
 17 18  1  0  0  0  0
 17 19  2  0  0  0  0
 18 32  1  0  0  0  0
 20 21  1  0  0  0  0
 20 22  2  0  0  0  0
 21 33  1  0  0  0  0
 21 34  1  0  0  0  0
 21 35  1  0  0  0  0
M  END
> <From>
www.bindingDB.org

> <BindingDB Reactant_set_id>
50940656

> <Ligand InChI>
InChI=1S/C16H13NO5/c1-9(18)10-5-6-14(13(8-10)16(21)22)17-12-4-2-3-11(7-12)15(19)20/h2-8,17H,1H3,(H,19,20)(H,21,22)

> <Ligand InChI Key>
FUMRJGBEMSCDNN-UHFFFAOYSA-N

> <BindingDB MonomerID>
50385686

> <BindingDB Ligand Name>
CHEMBL2041554

> <Target Name Assigned by Curator or DataSource>
Aldo-keto reductase family 1 member C2

> <Target Source Organism According to Curator or DataSource>
Homo sapiens

> <Ki (nM)>


> <IC50 (nM)>
 6410

> <Kd (nM)>


> <EC50 (nM)>


> <kon (M-1-s-1)>


> <koff (s-1)>


> <pH>


> <Temp C>


> <Curation/DataSource>
ChEMBL

> <Article DOI>
10.1021/jm201547v

> <PMID>
22263837

> <PubChem AID>


> <Patent Number>


> <Authors>
Adeniji, AO; Twenter, BM; Byrns, MC; Jin, Y; Chen, M; Winkler, JD; Penning, TM

> <Institution>
University of Pennsylvania

> <Link to Ligand in BindingDB>
http://www.bindingdb.org/bind/chemsearch/marvin/MolStructure.jsp?monomerid=50385686

> <Link to Ligand-Target Pair in BindingDB>
http://www.bindingdb.org/jsp/dbsearch/PrimarySearch_ki.jsp?energyterm=kJ/mole&tag=pol&polymerid=3022&target=Aldo-keto+reductase+family+1+member+C2&column=ki&startPg=0&Increment=50&submit=Search

> <Link to Ligand-Target Pair in BindingDB>
http://www.bindingdb.org/jsp/dbsearch/PrimarySearch_ki.jsp?energyterm=kJ/mole&tag=r21&monomerid=50385686&enzyme=Aldo-keto+reductase+family+1+member+C2&column=ki&startPg=0&Increment=50&submit=Search

> <Ligand HET ID in PDB>


> <PDB ID(s) for Ligand-Target Complex>


> <PubChem CID>
56964583

> <PubChem SID>
160864769

> <ChEBI ID of Ligand>


> <ChEMBL ID of Ligand>
CHEMBL2041554

> <DrugBank ID of Ligand>


> <IUPHAR_GRAC ID of Ligand>


> <KEGG ID of Ligand>


> <ZINC ID of Ligand>
ZINC84712704

> <Number of Protein Chains in Target (>1 implies a multichain complex)>
1

> <BindingDB Target Chain Sequence>
MDSKYQCVKLNDGHFMPVLGFGTYAPAEVPKSKALEAVKLAIEAGFHHIDSAHVYNNEEQVGLAIRSKIADGSVKREDIFYTSKLWSNSHRPELVRPALERSLKNLQLDYVDLYLIHFPVSVKPGEEVIPKDENGKILFDTVDLCATWEAMEKCKDAGLAKSIGVSNFNHRLLEMILNKPGLKYKPVCNQVECHPYFNQRKLLDFCKSKDIVLVAYSALGSHREEPWVDPNSPVLLEDPVLCALAKKHKRTPALIALRYQLQRGVVVLAKSYNEQRIRQNVQVFEFQLTSEEMKAIDGLNRNVRYLTLDIFAGPPNYPFSDEY

> <PDB ID(s) of Target Chain>
1IHI,1J96,1XJB,2HDJ,4JQ1,4JQ2,4JQ3,4JQ4,4JQA,4JTQ,4JTR,4L1W,4XO6,4XO7,6F2U

> <UniProt (SwissProt) Recommended Name of Target Chain>
Aldo-keto reductase family 1 member C2

> <UniProt (SwissProt) Entry Name of Target Chain>
AK1C2_HUMAN

> <UniProt (SwissProt) Primary ID of Target Chain>
P52895

> <UniProt (SwissProt) Secondary ID(s) of Target Chain>
A8K2N9,B4DKR9,Q14133,Q5SR16,Q7M4N1,Q96A71

> <UniProt (SwissProt) Alternative ID(s) of Target Chain>


> <UniProt (TrEMBL) Submitted Name of Target Chain>


> <UniProt (TrEMBL) Entry Name of Target Chain>


> <UniProt (TrEMBL) Primary ID of Target Chain>


> <UniProt (TrEMBL) Secondary ID(s) of Target Chain>


> <UniProt (TrEMBL) Alternative ID(s) of Target Chain>


$$$$
BindingDB_50385692_mol_1

Vconf v2.0 Academic SN VC001-00000579
 33 34  0  0  0  0  0  0  0  0999 V2000
   22.6060  -30.2540    3.7000 C   0  0  0  0  0  0  0  0  0  0  0
   14.7920  -28.3100    0.2050 C   0  0  0  0  0  0  0  0  0  0  0
   15.0990  -29.6010   -0.2530 C   0  0  0  0  0  0  0  0  0  0  0
   16.2840  -30.2300    0.1620 C   0  0  0  0  0  0  0  0  0  0  0
   17.1650  -29.5790    1.0450 C   0  0  0  0  0  0  0  0  0  0  0
   16.8530  -28.2740    1.4840 C   0  0  0  0  0  0  0  0  0  0  0
   15.6650  -27.6250    1.0790 C   0  0  0  0  0  0  0  0  0  0  0
   18.3060  -30.2320    1.3980 N   0  0  0  0  0  0  0  0  0  0  0
   18.9780  -30.1280    2.5760 C   0  0  0  0  0  0  0  0  0  0  0
   18.3320  -29.9570    3.8180 C   0  0  0  0  0  0  0  0  0  0  0
   19.0740  -29.8670    5.0110 C   0  0  0  0  0  0  0  0  0  0  0
   20.4780  -29.9640    4.9570 C   0  0  0  0  0  0  0  0  0  0  0
   21.1380  -30.1520    3.7290 C   0  0  0  0  0  0  0  0  0  0  0
   20.3810  -30.2370    2.5440 C   0  0  0  0  0  0  0  0  0  0  0
   15.3710  -26.3500    1.5300 C   0  0  0  0  0  0  0  0  0  0  0
   16.1750  -25.7040    2.3570 O   0  0  0  0  0  0  0  0  0  0  0
   14.3550  -25.7600    1.1910 O   0  0  0  0  0  0  0  0  0  0  0
   18.3740  -29.6750    6.2900 C   0  0  0  0  0  0  0  0  0  0  0
   22.9710  -30.3990    2.6810 H   0  0  0  0  0  0  0  0  0  0  0
   23.0440  -29.3390    4.1020 H   0  0  0  0  0  0  0  0  0  0  0
   22.9250  -31.1010    4.3090 H   0  0  0  0  0  0  0  0  0  0  0
   13.9260  -27.8670   -0.1060 H   0  0  0  0  0  0  0  0  0  0  0
   14.4620  -30.0820   -0.8880 H   0  0  0  0  0  0  0  0  0  0  0
   16.5000  -31.1670   -0.1780 H   0  0  0  0  0  0  0  0  0  0  0
   17.5030  -27.7890    2.1060 H   0  0  0  0  0  0  0  0  0  0  0
   18.6830  -30.8330    0.7360 H   0  0  0  0  0  0  0  0  0  0  0
   17.3130  -29.8980    3.8570 H   0  0  0  0  0  0  0  0  0  0  0
   21.0230  -29.9000    5.8180 H   0  0  0  0  0  0  0  0  0  0  0
   20.8550  -30.3750    1.6510 H   0  0  0  0  0  0  0  0  0  0  0
   15.8530  -24.8120    2.6000 H   0  0  0  0  0  0  0  0  0  0  0
   19.0790  -29.6240    7.1220 H   0  0  0  0  0  0  0  0  0  0  0
   17.8030  -28.7460    6.2580 H   0  0  0  0  0  0  0  0  0  0  0
   17.6900  -30.5080    6.4620 H   0  0  0  0  0  0  0  0  0  0  0
  1 13  1  0  0  0  0
  1 19  1  0  0  0  0
  1 20  1  0  0  0  0
  1 21  1  0  0  0  0
  2  3  2  0  0  0  0
  2  7  1  0  0  0  0
  2 22  1  0  0  0  0
  3  4  1  0  0  0  0
  3 23  1  0  0  0  0
  4  5  2  0  0  0  0
  4 24  1  0  0  0  0
  5  6  1  0  0  0  0
  5  8  1  0  0  0  0
  6  7  2  0  0  0  0
  6 25  1  0  0  0  0
  7 15  1  0  0  0  0
  8  9  1  0  0  0  0
  8 26  1  0  0  0  0
  9 10  2  0  0  0  0
  9 14  1  0  0  0  0
 10 11  1  0  0  0  0
 10 27  1  0  0  0  0
 11 12  2  0  0  0  0
 11 18  1  0  0  0  0
 12 13  1  0  0  0  0
 12 28  1  0  0  0  0
 13 14  2  0  0  0  0
 14 29  1  0  0  0  0
 15 16  1  0  0  0  0
 15 17  2  0  0  0  0
 16 30  1  0  0  0  0
 18 31  1  0  0  0  0
 18 32  1  0  0  0  0
 18 33  1  0  0  0  0
M  END
> <From>
www.bindingDB.org

> <BindingDB Reactant_set_id>
50940662

> <Ligand InChI>
InChI=1S/C15H15NO2/c1-10-6-11(2)8-14(7-10)16-13-5-3-4-12(9-13)15(17)18/h3-9,16H,1-2H3,(H,17,18)

> <Ligand InChI Key>
ROTNZPCJOMPIKD-UHFFFAOYSA-N

> <BindingDB MonomerID>
50385692

> <BindingDB Ligand Name>
CHEMBL2041560

> <Target Name Assigned by Curator or DataSource>
Aldo-keto reductase family 1 member C2

> <Target Source Organism According to Curator or DataSource>
Homo sapiens

> <Ki (nM)>


> <IC50 (nM)>
 44600

> <Kd (nM)>


> <EC50 (nM)>


> <kon (M-1-s-1)>


> <koff (s-1)>


> <pH>


> <Temp C>


> <Curation/DataSource>
ChEMBL

> <Article DOI>
10.1021/jm201547v

> <PMID>
22263837

> <PubChem AID>


> <Patent Number>


> <Authors>
Adeniji, AO; Twenter, BM; Byrns, MC; Jin, Y; Chen, M; Winkler, JD; Penning, TM

> <Institution>
University of Pennsylvania

> <Link to Ligand in BindingDB>
http://www.bindingdb.org/bind/chemsearch/marvin/MolStructure.jsp?monomerid=50385692

> <Link to Ligand-Target Pair in BindingDB>
http://www.bindingdb.org/jsp/dbsearch/PrimarySearch_ki.jsp?energyterm=kJ/mole&tag=pol&polymerid=3022&target=Aldo-keto+reductase+family+1+member+C2&column=ki&startPg=0&Increment=50&submit=Search

> <Link to Ligand-Target Pair in BindingDB>
http://www.bindingdb.org/jsp/dbsearch/PrimarySearch_ki.jsp?energyterm=kJ/mole&tag=r21&monomerid=50385692&enzyme=Aldo-keto+reductase+family+1+member+C2&column=ki&startPg=0&Increment=50&submit=Search

> <Ligand HET ID in PDB>


> <PDB ID(s) for Ligand-Target Complex>


> <PubChem CID>
70688224

> <PubChem SID>
160864775

> <ChEBI ID of Ligand>


> <ChEMBL ID of Ligand>
CHEMBL2041560

> <DrugBank ID of Ligand>


> <IUPHAR_GRAC ID of Ligand>


> <KEGG ID of Ligand>


> <ZINC ID of Ligand>
ZINC84709967

> <Number of Protein Chains in Target (>1 implies a multichain complex)>
1

> <BindingDB Target Chain Sequence>
MDSKYQCVKLNDGHFMPVLGFGTYAPAEVPKSKALEAVKLAIEAGFHHIDSAHVYNNEEQVGLAIRSKIADGSVKREDIFYTSKLWSNSHRPELVRPALERSLKNLQLDYVDLYLIHFPVSVKPGEEVIPKDENGKILFDTVDLCATWEAMEKCKDAGLAKSIGVSNFNHRLLEMILNKPGLKYKPVCNQVECHPYFNQRKLLDFCKSKDIVLVAYSALGSHREEPWVDPNSPVLLEDPVLCALAKKHKRTPALIALRYQLQRGVVVLAKSYNEQRIRQNVQVFEFQLTSEEMKAIDGLNRNVRYLTLDIFAGPPNYPFSDEY

> <PDB ID(s) of Target Chain>
1IHI,1J96,1XJB,2HDJ,4JQ1,4JQ2,4JQ3,4JQ4,4JQA,4JTQ,4JTR,4L1W,4XO6,4XO7,6F2U

> <UniProt (SwissProt) Recommended Name of Target Chain>
Aldo-keto reductase family 1 member C2

> <UniProt (SwissProt) Entry Name of Target Chain>
AK1C2_HUMAN

> <UniProt (SwissProt) Primary ID of Target Chain>
P52895

> <UniProt (SwissProt) Secondary ID(s) of Target Chain>
A8K2N9,B4DKR9,Q14133,Q5SR16,Q7M4N1,Q96A71

> <UniProt (SwissProt) Alternative ID(s) of Target Chain>


> <UniProt (TrEMBL) Submitted Name of Target Chain>


> <UniProt (TrEMBL) Entry Name of Target Chain>


> <UniProt (TrEMBL) Primary ID of Target Chain>


> <UniProt (TrEMBL) Secondary ID(s) of Target Chain>


> <UniProt (TrEMBL) Alternative ID(s) of Target Chain>


$$$$
BindingDB_50385693_mol_1

Vconf v2.0 Academic SN VC001-00000579
 33 34  0  0  0  0  0  0  0  0999 V2000
   26.4140  -28.5990   -2.1470 C   0  0  0  0  0  0  0  0  0  0  0
   19.8570  -28.5010    0.7070 C   0  0  0  0  0  0  0  0  0  0  0
   20.0110  -29.8570    1.0350 C   0  0  0  0  0  0  0  0  0  0  0
   21.2860  -30.3710    1.3160 C   0  0  0  0  0  0  0  0  0  0  0
   22.4180  -29.5380    1.2610 C   0  0  0  0  0  0  0  0  0  0  0
   22.2490  -28.1710    0.9470 C   0  0  0  0  0  0  0  0  0  0  0
   20.9730  -27.6360    0.6600 C   0  0  0  0  0  0  0  0  0  0  0
   23.6260  -30.0890    1.5580 N   0  0  0  0  0  0  0  0  0  0  0
   24.8320  -29.7640    1.0180 C   0  0  0  0  0  0  0  0  0  0  0
   25.9720  -29.9080    1.8280 C   0  0  0  0  0  0  0  0  0  0  0
   27.2620  -29.6120    1.3390 C   0  0  0  0  0  0  0  0  0  0  0
   27.3890  -29.1720    0.0030 C   0  0  0  0  0  0  0  0  0  0  0
   26.2650  -29.0300   -0.8400 C   0  0  0  0  0  0  0  0  0  0  0
   24.9920  -29.3380   -0.3170 C   0  0  0  0  0  0  0  0  0  0  0
   20.8260  -26.2970    0.3430 C   0  0  0  0  0  0  0  0  0  0  0
   21.8630  -25.4780    0.2890 O   0  0  0  0  0  0  0  0  0  0  0
   19.7350  -25.8050    0.0960 O   0  0  0  0  0  0  0  0  0  0  0
   28.3800  -29.7510    2.1440 C   0  0  0  0  0  0  0  0  0  0  0
   29.5960  -29.4970    1.6920 O   0  0  0  0  0  0  0  0  0  0  0
   28.3000  -30.1160    3.3070 O   0  0  0  0  0  0  0  0  0  0  0
   27.5950  -28.2610   -2.6360 O   0  0  0  0  0  0  0  0  0  0  0
   25.4650  -28.5060   -2.9110 O   0  0  0  0  0  0  0  0  0  0  0
   18.9220  -28.1430    0.5030 H   0  0  0  0  0  0  0  0  0  0  0
   19.1950  -30.4690    1.0700 H   0  0  0  0  0  0  0  0  0  0  0
   21.3880  -31.3580    1.5550 H   0  0  0  0  0  0  0  0  0  0  0
   23.0660  -27.5600    0.9300 H   0  0  0  0  0  0  0  0  0  0  0
   23.6270  -30.7930    2.2260 H   0  0  0  0  0  0  0  0  0  0  0
   25.8590  -30.2290    2.7910 H   0  0  0  0  0  0  0  0  0  0  0
   28.3170  -28.9540   -0.3640 H   0  0  0  0  0  0  0  0  0  0  0
   24.1690  -29.2540   -0.9160 H   0  0  0  0  0  0  0  0  0  0  0
   21.6240  -24.5600    0.0490 H   0  0  0  0  0  0  0  0  0  0  0
   30.2990  -29.6370    2.3590 H   0  0  0  0  0  0  0  0  0  0  0
   27.5630  -27.9720   -3.5710 H   0  0  0  0  0  0  0  0  0  0  0
  1 13  1  0  0  0  0
  1 21  1  0  0  0  0
  1 22  2  0  0  0  0
  2  3  2  0  0  0  0
  2  7  1  0  0  0  0
  2 23  1  0  0  0  0
  3  4  1  0  0  0  0
  3 24  1  0  0  0  0
  4  5  2  0  0  0  0
  4 25  1  0  0  0  0
  5  6  1  0  0  0  0
  5  8  1  0  0  0  0
  6  7  2  0  0  0  0
  6 26  1  0  0  0  0
  7 15  1  0  0  0  0
  8  9  1  0  0  0  0
  8 27  1  0  0  0  0
  9 10  2  0  0  0  0
  9 14  1  0  0  0  0
 10 11  1  0  0  0  0
 10 28  1  0  0  0  0
 11 12  2  0  0  0  0
 11 18  1  0  0  0  0
 12 13  1  0  0  0  0
 12 29  1  0  0  0  0
 13 14  2  0  0  0  0
 14 30  1  0  0  0  0
 15 16  1  0  0  0  0
 15 17  2  0  0  0  0
 16 31  1  0  0  0  0
 18 19  1  0  0  0  0
 18 20  2  0  0  0  0
 19 32  1  0  0  0  0
 21 33  1  0  0  0  0
M  END
> <From>
www.bindingDB.org

> <BindingDB Reactant_set_id>
50940663

> <Ligand InChI>
InChI=1S/C15H11NO6/c17-13(18)8-2-1-3-11(5-8)16-12-6-9(14(19)20)4-10(7-12)15(21)22/h1-7,16H,(H,17,18)(H,19,20)(H,21,22)

> <Ligand InChI Key>
OMZJXJHKLDPVNI-UHFFFAOYSA-N

> <BindingDB MonomerID>
50385693

> <BindingDB Ligand Name>
CHEMBL2041561

> <Target Name Assigned by Curator or DataSource>
Aldo-keto reductase family 1 member C2

> <Target Source Organism According to Curator or DataSource>
Homo sapiens

> <Ki (nM)>


> <IC50 (nM)>
>100000

> <Kd (nM)>


> <EC50 (nM)>


> <kon (M-1-s-1)>


> <koff (s-1)>


> <pH>


> <Temp C>


> <Curation/DataSource>
ChEMBL

> <Article DOI>
10.1021/jm201547v

> <PMID>
22263837

> <PubChem AID>


> <Patent Number>


> <Authors>
Adeniji, AO; Twenter, BM; Byrns, MC; Jin, Y; Chen, M; Winkler, JD; Penning, TM

> <Institution>
University of Pennsylvania

> <Link to Ligand in BindingDB>
http://www.bindingdb.org/bind/chemsearch/marvin/MolStructure.jsp?monomerid=50385693

> <Link to Ligand-Target Pair in BindingDB>
http://www.bindingdb.org/jsp/dbsearch/PrimarySearch_ki.jsp?energyterm=kJ/mole&tag=pol&polymerid=3022&target=Aldo-keto+reductase+family+1+member+C2&column=ki&startPg=0&Increment=50&submit=Search

> <Link to Ligand-Target Pair in BindingDB>
http://www.bindingdb.org/jsp/dbsearch/PrimarySearch_ki.jsp?energyterm=kJ/mole&tag=r21&monomerid=50385693&enzyme=Aldo-keto+reductase+family+1+member+C2&column=ki&startPg=0&Increment=50&submit=Search

> <Ligand HET ID in PDB>


> <PDB ID(s) for Ligand-Target Complex>


> <PubChem CID>
70690246

> <PubChem SID>
160864776

> <ChEBI ID of Ligand>


> <ChEMBL ID of Ligand>
CHEMBL2041561

> <DrugBank ID of Ligand>


> <IUPHAR_GRAC ID of Ligand>


> <KEGG ID of Ligand>


> <ZINC ID of Ligand>
ZINC84709969

> <Number of Protein Chains in Target (>1 implies a multichain complex)>
1

> <BindingDB Target Chain Sequence>
MDSKYQCVKLNDGHFMPVLGFGTYAPAEVPKSKALEAVKLAIEAGFHHIDSAHVYNNEEQVGLAIRSKIADGSVKREDIFYTSKLWSNSHRPELVRPALERSLKNLQLDYVDLYLIHFPVSVKPGEEVIPKDENGKILFDTVDLCATWEAMEKCKDAGLAKSIGVSNFNHRLLEMILNKPGLKYKPVCNQVECHPYFNQRKLLDFCKSKDIVLVAYSALGSHREEPWVDPNSPVLLEDPVLCALAKKHKRTPALIALRYQLQRGVVVLAKSYNEQRIRQNVQVFEFQLTSEEMKAIDGLNRNVRYLTLDIFAGPPNYPFSDEY

> <PDB ID(s) of Target Chain>
1IHI,1J96,1XJB,2HDJ,4JQ1,4JQ2,4JQ3,4JQ4,4JQA,4JTQ,4JTR,4L1W,4XO6,4XO7,6F2U

> <UniProt (SwissProt) Recommended Name of Target Chain>
Aldo-keto reductase family 1 member C2

> <UniProt (SwissProt) Entry Name of Target Chain>
AK1C2_HUMAN

> <UniProt (SwissProt) Primary ID of Target Chain>
P52895

> <UniProt (SwissProt) Secondary ID(s) of Target Chain>
A8K2N9,B4DKR9,Q14133,Q5SR16,Q7M4N1,Q96A71

> <UniProt (SwissProt) Alternative ID(s) of Target Chain>


> <UniProt (TrEMBL) Submitted Name of Target Chain>


> <UniProt (TrEMBL) Entry Name of Target Chain>


> <UniProt (TrEMBL) Primary ID of Target Chain>


> <UniProt (TrEMBL) Secondary ID(s) of Target Chain>


> <UniProt (TrEMBL) Alternative ID(s) of Target Chain>


$$$$
BindingDB_50385697_mol_1

Vconf v2.0 Academic SN VC001-00000579
 30 31  0  0  0  0  0  0  0  0999 V2000
   11.9150   -7.4100    0.5400 C   0  0  0  0  0  0  0  0  0  0  0
   12.0540   -8.7990    0.3340 C   0  0  0  0  0  0  0  0  0  0  0
   13.2600   -9.4530    0.6340 C   0  0  0  0  0  0  0  0  0  0  0
   14.3580   -8.7390    1.1480 C   0  0  0  0  0  0  0  0  0  0  0
   14.2240   -7.3480    1.3550 C   0  0  0  0  0  0  0  0  0  0  0
   13.0180   -6.6930    1.0540 C   0  0  0  0  0  0  0  0  0  0  0
   15.4890   -9.4490    1.4140 N   0  0  0  0  0  0  0  0  0  0  0
   16.6390   -8.9450    1.9200 C   0  0  0  0  0  0  0  0  0  0  0
   16.8300   -8.8840    3.3120 C   0  0  0  0  0  0  0  0  0  0  0
   18.0320   -8.3810    3.8370 C   0  0  0  0  0  0  0  0  0  0  0
   19.0480   -7.9420    2.9710 C   0  0  0  0  0  0  0  0  0  0  0
   18.8700   -8.0050    1.5750 C   0  0  0  0  0  0  0  0  0  0  0
   17.6620   -8.5110    1.0550 C   0  0  0  0  0  0  0  0  0  0  0
   19.9460   -7.5450    0.6830 C   0  0  0  0  0  0  0  0  0  0  0
   10.7000   -6.7570    0.2380 C   0  0  0  0  0  0  0  0  0  0  0
    9.6390   -7.4360   -0.2510 O   0  0  0  0  0  0  0  0  0  0  0
   10.5510   -5.5260    0.4120 O   0  0  0  0  0  0  0  0  0  0  0
   11.2750   -9.3470   -0.0360 H   0  0  0  0  0  0  0  0  0  0  0
   13.3350  -10.4590    0.4770 H   0  0  0  0  0  0  0  0  0  0  0
   15.0040   -6.8040    1.7260 H   0  0  0  0  0  0  0  0  0  0  0
   12.9500   -5.6860    1.2140 H   0  0  0  0  0  0  0  0  0  0  0
   15.4700  -10.4010    1.2300 H   0  0  0  0  0  0  0  0  0  0  0
   16.0960   -9.2040    3.9450 H   0  0  0  0  0  0  0  0  0  0  0
   18.1680   -8.3350    4.8470 H   0  0  0  0  0  0  0  0  0  0  0
   19.9190   -7.5780    3.3590 H   0  0  0  0  0  0  0  0  0  0  0
   17.5240   -8.5620    0.0440 H   0  0  0  0  0  0  0  0  0  0  0
   19.6630   -7.6510   -0.3650 H   0  0  0  0  0  0  0  0  0  0  0
   20.1610   -6.4940    0.8830 H   0  0  0  0  0  0  0  0  0  0  0
   20.8470   -8.1340    0.8640 H   0  0  0  0  0  0  0  0  0  0  0
    8.8550   -6.8720   -0.4150 H   0  0  0  0  0  0  0  0  0  0  0
  1  2  2  0  0  0  0
  1  6  1  0  0  0  0
  1 15  1  0  0  0  0
  2  3  1  0  0  0  0
  2 18  1  0  0  0  0
  3  4  2  0  0  0  0
  3 19  1  0  0  0  0
  4  5  1  0  0  0  0
  4  7  1  0  0  0  0
  5  6  2  0  0  0  0
  5 20  1  0  0  0  0
  6 21  1  0  0  0  0
  7  8  1  0  0  0  0
  7 22  1  0  0  0  0
  8  9  2  0  0  0  0
  8 13  1  0  0  0  0
  9 10  1  0  0  0  0
  9 23  1  0  0  0  0
 10 11  2  0  0  0  0
 10 24  1  0  0  0  0
 11 12  1  0  0  0  0
 11 25  1  0  0  0  0
 12 13  2  0  0  0  0
 12 14  1  0  0  0  0
 13 26  1  0  0  0  0
 14 27  1  0  0  0  0
 14 28  1  0  0  0  0
 14 29  1  0  0  0  0
 15 16  1  0  0  0  0
 15 17  2  0  0  0  0
 16 30  1  0  0  0  0
M  END
> <From>
www.bindingDB.org

> <BindingDB Reactant_set_id>
50940668

> <Ligand InChI>
InChI=1S/C14H13NO2/c1-10-3-2-4-13(9-10)15-12-7-5-11(6-8-12)14(16)17/h2-9,15H,1H3,(H,16,17)

> <Ligand InChI Key>
PTHMPNASBFVZBH-UHFFFAOYSA-N

> <BindingDB MonomerID>
50385697

> <BindingDB Ligand Name>
CHEMBL2041567

> <Target Name Assigned by Curator or DataSource>
Aldo-keto reductase family 1 member C2

> <Target Source Organism According to Curator or DataSource>
Homo sapiens

> <Ki (nM)>


> <IC50 (nM)>
 21500

> <Kd (nM)>


> <EC50 (nM)>


> <kon (M-1-s-1)>


> <koff (s-1)>


> <pH>


> <Temp C>


> <Curation/DataSource>
ChEMBL

> <Article DOI>
10.1021/jm201547v

> <PMID>
22263837

> <PubChem AID>


> <Patent Number>


> <Authors>
Adeniji, AO; Twenter, BM; Byrns, MC; Jin, Y; Chen, M; Winkler, JD; Penning, TM

> <Institution>
University of Pennsylvania

> <Link to Ligand in BindingDB>
http://www.bindingdb.org/bind/chemsearch/marvin/MolStructure.jsp?monomerid=50385697

> <Link to Ligand-Target Pair in BindingDB>
http://www.bindingdb.org/jsp/dbsearch/PrimarySearch_ki.jsp?energyterm=kJ/mole&tag=pol&polymerid=3022&target=Aldo-keto+reductase+family+1+member+C2&column=ki&startPg=0&Increment=50&submit=Search

> <Link to Ligand-Target Pair in BindingDB>
http://www.bindingdb.org/jsp/dbsearch/PrimarySearch_ki.jsp?energyterm=kJ/mole&tag=r21&monomerid=50385697&enzyme=Aldo-keto+reductase+family+1+member+C2&column=ki&startPg=0&Increment=50&submit=Search

> <Ligand HET ID in PDB>


> <PDB ID(s) for Ligand-Target Complex>


> <PubChem CID>
11470189

> <PubChem SID>
160864780

> <ChEBI ID of Ligand>


> <ChEMBL ID of Ligand>
CHEMBL2041567

> <DrugBank ID of Ligand>


> <IUPHAR_GRAC ID of Ligand>


> <KEGG ID of Ligand>


> <ZINC ID of Ligand>
ZINC50913049

> <Number of Protein Chains in Target (>1 implies a multichain complex)>
1

> <BindingDB Target Chain Sequence>
MDSKYQCVKLNDGHFMPVLGFGTYAPAEVPKSKALEAVKLAIEAGFHHIDSAHVYNNEEQVGLAIRSKIADGSVKREDIFYTSKLWSNSHRPELVRPALERSLKNLQLDYVDLYLIHFPVSVKPGEEVIPKDENGKILFDTVDLCATWEAMEKCKDAGLAKSIGVSNFNHRLLEMILNKPGLKYKPVCNQVECHPYFNQRKLLDFCKSKDIVLVAYSALGSHREEPWVDPNSPVLLEDPVLCALAKKHKRTPALIALRYQLQRGVVVLAKSYNEQRIRQNVQVFEFQLTSEEMKAIDGLNRNVRYLTLDIFAGPPNYPFSDEY

> <PDB ID(s) of Target Chain>
1IHI,1J96,1XJB,2HDJ,4JQ1,4JQ2,4JQ3,4JQ4,4JQA,4JTQ,4JTR,4L1W,4XO6,4XO7,6F2U

> <UniProt (SwissProt) Recommended Name of Target Chain>
Aldo-keto reductase family 1 member C2

> <UniProt (SwissProt) Entry Name of Target Chain>
AK1C2_HUMAN

> <UniProt (SwissProt) Primary ID of Target Chain>
P52895

> <UniProt (SwissProt) Secondary ID(s) of Target Chain>
A8K2N9,B4DKR9,Q14133,Q5SR16,Q7M4N1,Q96A71

> <UniProt (SwissProt) Alternative ID(s) of Target Chain>


> <UniProt (TrEMBL) Submitted Name of Target Chain>


> <UniProt (TrEMBL) Entry Name of Target Chain>


> <UniProt (TrEMBL) Primary ID of Target Chain>


> <UniProt (TrEMBL) Secondary ID(s) of Target Chain>


> <UniProt (TrEMBL) Alternative ID(s) of Target Chain>


$$$$
BindingDB_50385707_mol_1

Vconf v2.0 Academic SN VC001-00000579
 33 34  0  0  0  0  0  0  0  0999 V2000
   16.0600  -23.1500    0.5800 C   0  0  0  0  0  0  0  0  0  0  0
   15.9730  -24.5360    0.3250 C   0  0  0  0  0  0  0  0  0  0  0
   17.0770  -25.3770    0.5400 C   0  0  0  0  0  0  0  0  0  0  0
   18.2990  -24.8530    1.0160 C   0  0  0  0  0  0  0  0  0  0  0
   18.3870  -23.4720    1.2700 C   0  0  0  0  0  0  0  0  0  0  0
   17.2830  -22.6300    1.0550 C   0  0  0  0  0  0  0  0  0  0  0
   19.4140  -25.5990    1.2520 N   0  0  0  0  0  0  0  0  0  0  0
   19.5250  -26.9350    1.0690 C   0  0  0  0  0  0  0  0  0  0  0
   19.9460  -27.4460   -0.1730 C   0  0  0  0  0  0  0  0  0  0  0
   20.0810  -28.8340   -0.3650 C   0  0  0  0  0  0  0  0  0  0  0
   19.7940  -29.7090    0.7020 C   0  0  0  0  0  0  0  0  0  0  0
   19.3770  -29.2090    1.9500 C   0  0  0  0  0  0  0  0  0  0  0
   19.2460  -27.8180    2.1280 C   0  0  0  0  0  0  0  0  0  0  0
   19.0870  -30.1440    3.0490 C   0  0  0  0  0  0  0  0  0  0  0
   20.5220  -29.3490   -1.6710 C   0  0  0  0  0  0  0  0  0  0  0
   14.9470  -22.3080    0.3630 C   0  0  0  0  0  0  0  0  0  0  0
   13.7720  -22.7970   -0.0910 O   0  0  0  0  0  0  0  0  0  0  0
   14.9990  -21.0760    0.5810 O   0  0  0  0  0  0  0  0  0  0  0
   15.1020  -24.9440   -0.0200 H   0  0  0  0  0  0  0  0  0  0  0
   16.9840  -26.3750    0.3480 H   0  0  0  0  0  0  0  0  0  0  0
   19.2600  -23.0710    1.6140 H   0  0  0  0  0  0  0  0  0  0  0
   17.3790  -21.6310    1.2480 H   0  0  0  0  0  0  0  0  0  0  0
   20.1990  -25.1340    1.5810 H   0  0  0  0  0  0  0  0  0  0  0
   20.1540  -26.8050   -0.9400 H   0  0  0  0  0  0  0  0  0  0  0
   19.8900  -30.7170    0.5690 H   0  0  0  0  0  0  0  0  0  0  0
   18.9460  -27.4460    3.0300 H   0  0  0  0  0  0  0  0  0  0  0
   18.7720  -29.6110    3.9480 H   0  0  0  0  0  0  0  0  0  0  0
   18.2900  -30.8250    2.7500 H   0  0  0  0  0  0  0  0  0  0  0
   19.9830  -30.7220    3.2820 H   0  0  0  0  0  0  0  0  0  0  0
   20.5830  -30.4380   -1.6660 H   0  0  0  0  0  0  0  0  0  0  0
   19.8140  -29.0420   -2.4420 H   0  0  0  0  0  0  0  0  0  0  0
   21.5070  -28.9440   -1.9090 H   0  0  0  0  0  0  0  0  0  0  0
   13.0800  -22.1120   -0.2000 H   0  0  0  0  0  0  0  0  0  0  0
  1  2  2  0  0  0  0
  1  6  1  0  0  0  0
  1 16  1  0  0  0  0
  2  3  1  0  0  0  0
  2 19  1  0  0  0  0
  3  4  2  0  0  0  0
  3 20  1  0  0  0  0
  4  5  1  0  0  0  0
  4  7  1  0  0  0  0
  5  6  2  0  0  0  0
  5 21  1  0  0  0  0
  6 22  1  0  0  0  0
  7  8  1  0  0  0  0
  7 23  1  0  0  0  0
  8  9  2  0  0  0  0
  8 13  1  0  0  0  0
  9 10  1  0  0  0  0
  9 24  1  0  0  0  0
 10 11  2  0  0  0  0
 10 15  1  0  0  0  0
 11 12  1  0  0  0  0
 11 25  1  0  0  0  0
 12 13  2  0  0  0  0
 12 14  1  0  0  0  0
 13 26  1  0  0  0  0
 14 27  1  0  0  0  0
 14 28  1  0  0  0  0
 14 29  1  0  0  0  0
 15 30  1  0  0  0  0
 15 31  1  0  0  0  0
 15 32  1  0  0  0  0
 16 17  1  0  0  0  0
 16 18  2  0  0  0  0
 17 33  1  0  0  0  0
M  END
> <From>
www.bindingDB.org

> <BindingDB Reactant_set_id>
50940677

> <Ligand InChI>
InChI=1S/C15H15NO2/c1-10-7-11(2)9-14(8-10)16-13-5-3-12(4-6-13)15(17)18/h3-9,16H,1-2H3,(H,17,18)

> <Ligand InChI Key>
PAQHQPHOJXVFSS-UHFFFAOYSA-N

> <BindingDB MonomerID>
50385707

> <BindingDB Ligand Name>
CHEMBL2041777

> <Target Name Assigned by Curator or DataSource>
Aldo-keto reductase family 1 member C2

> <Target Source Organism According to Curator or DataSource>
Homo sapiens

> <Ki (nM)>


> <IC50 (nM)>
 49300

> <Kd (nM)>


> <EC50 (nM)>


> <kon (M-1-s-1)>


> <koff (s-1)>


> <pH>


> <Temp C>


> <Curation/DataSource>
ChEMBL

> <Article DOI>
10.1021/jm201547v

> <PMID>
22263837

> <PubChem AID>


> <Patent Number>


> <Authors>
Adeniji, AO; Twenter, BM; Byrns, MC; Jin, Y; Chen, M; Winkler, JD; Penning, TM

> <Institution>
University of Pennsylvania

> <Link to Ligand in BindingDB>
http://www.bindingdb.org/bind/chemsearch/marvin/MolStructure.jsp?monomerid=50385707

> <Link to Ligand-Target Pair in BindingDB>
http://www.bindingdb.org/jsp/dbsearch/PrimarySearch_ki.jsp?energyterm=kJ/mole&tag=pol&polymerid=3022&target=Aldo-keto+reductase+family+1+member+C2&column=ki&startPg=0&Increment=50&submit=Search

> <Link to Ligand-Target Pair in BindingDB>
http://www.bindingdb.org/jsp/dbsearch/PrimarySearch_ki.jsp?energyterm=kJ/mole&tag=r21&monomerid=50385707&enzyme=Aldo-keto+reductase+family+1+member+C2&column=ki&startPg=0&Increment=50&submit=Search

> <Ligand HET ID in PDB>


> <PDB ID(s) for Ligand-Target Complex>


> <PubChem CID>
55049196

> <PubChem SID>
160864790

> <ChEBI ID of Ligand>


> <ChEMBL ID of Ligand>
CHEMBL2041777

> <DrugBank ID of Ligand>


> <IUPHAR_GRAC ID of Ligand>


> <KEGG ID of Ligand>


> <ZINC ID of Ligand>
ZINC50913020

> <Number of Protein Chains in Target (>1 implies a multichain complex)>
1

> <BindingDB Target Chain Sequence>
MDSKYQCVKLNDGHFMPVLGFGTYAPAEVPKSKALEAVKLAIEAGFHHIDSAHVYNNEEQVGLAIRSKIADGSVKREDIFYTSKLWSNSHRPELVRPALERSLKNLQLDYVDLYLIHFPVSVKPGEEVIPKDENGKILFDTVDLCATWEAMEKCKDAGLAKSIGVSNFNHRLLEMILNKPGLKYKPVCNQVECHPYFNQRKLLDFCKSKDIVLVAYSALGSHREEPWVDPNSPVLLEDPVLCALAKKHKRTPALIALRYQLQRGVVVLAKSYNEQRIRQNVQVFEFQLTSEEMKAIDGLNRNVRYLTLDIFAGPPNYPFSDEY

> <PDB ID(s) of Target Chain>
1IHI,1J96,1XJB,2HDJ,4JQ1,4JQ2,4JQ3,4JQ4,4JQA,4JTQ,4JTR,4L1W,4XO6,4XO7,6F2U

> <UniProt (SwissProt) Recommended Name of Target Chain>
Aldo-keto reductase family 1 member C2

> <UniProt (SwissProt) Entry Name of Target Chain>
AK1C2_HUMAN

> <UniProt (SwissProt) Primary ID of Target Chain>
P52895

> <UniProt (SwissProt) Secondary ID(s) of Target Chain>
A8K2N9,B4DKR9,Q14133,Q5SR16,Q7M4N1,Q96A71

> <UniProt (SwissProt) Alternative ID(s) of Target Chain>


> <UniProt (TrEMBL) Submitted Name of Target Chain>


> <UniProt (TrEMBL) Entry Name of Target Chain>


> <UniProt (TrEMBL) Primary ID of Target Chain>


> <UniProt (TrEMBL) Secondary ID(s) of Target Chain>


> <UniProt (TrEMBL) Alternative ID(s) of Target Chain>


$$$$
BindingDB_50385709_mol_1

Vconf v2.0 Academic SN VC001-00000579
 31 32  0  0  0  0  0  0  0  0999 V2000
   10.2990   -1.3920    0.8670 C   0  0  0  0  0  0  0  0  0  0  0
   10.2950   -2.6120    0.1810 C   0  0  0  0  0  0  0  0  0  0  0
   11.3380   -3.5280    0.3830 C   0  0  0  0  0  0  0  0  0  0  0
   12.4030   -3.2430    1.2710 C   0  0  0  0  0  0  0  0  0  0  0
   12.4040   -2.0030    1.9750 C   0  0  0  0  0  0  0  0  0  0  0
   11.3430   -1.0930    1.7550 C   0  0  0  0  0  0  0  0  0  0  0
   13.4170   -1.6280    2.8970 C   0  0  0  0  0  0  0  0  0  0  0
   13.3800   -0.4400    3.5430 O   0  0  0  0  0  0  0  0  0  0  0
   14.3920   -2.3600    3.1770 O   0  0  0  0  0  0  0  0  0  0  0
   13.4210   -4.1370    1.4630 N   0  0  0  0  0  0  0  0  0  0  0
   13.5440   -5.3610    0.8970 C   0  0  0  0  0  0  0  0  0  0  0
   14.1510   -5.4820   -0.3680 C   0  0  0  0  0  0  0  0  0  0  0
   14.2820   -6.7440   -0.9710 C   0  0  0  0  0  0  0  0  0  0  0
   13.8060   -7.8900   -0.3130 C   0  0  0  0  0  0  0  0  0  0  0
   13.2050   -7.7730    0.9520 C   0  0  0  0  0  0  0  0  0  0  0
   13.0830   -6.5150    1.5690 C   0  0  0  0  0  0  0  0  0  0  0
   12.4860   -6.4580    2.7910 O   0  0  0  0  0  0  0  0  0  0  0
   13.2400   -6.0210    3.9250 C   0  0  0  0  0  0  0  0  0  0  0
    9.5420   -0.7220    0.7230 H   0  0  0  0  0  0  0  0  0  0  0
    9.5370   -2.8340   -0.4650 H   0  0  0  0  0  0  0  0  0  0  0
   11.3130   -4.4100   -0.1280 H   0  0  0  0  0  0  0  0  0  0  0
   11.3180   -0.1970    2.2450 H   0  0  0  0  0  0  0  0  0  0  0
   14.1330   -0.3030    4.1530 H   0  0  0  0  0  0  0  0  0  0  0
   14.1210   -3.8890    2.0850 H   0  0  0  0  0  0  0  0  0  0  0
   14.4940   -4.6520   -0.8530 H   0  0  0  0  0  0  0  0  0  0  0
   14.7210   -6.8280   -1.8890 H   0  0  0  0  0  0  0  0  0  0  0
   13.8970   -8.8060   -0.7520 H   0  0  0  0  0  0  0  0  0  0  0
   12.8590   -8.6070    1.4280 H   0  0  0  0  0  0  0  0  0  0  0
   12.6210   -6.1250    4.8160 H   0  0  0  0  0  0  0  0  0  0  0
   14.1330   -6.6370    4.0440 H   0  0  0  0  0  0  0  0  0  0  0
   13.5310   -4.9760    3.8250 H   0  0  0  0  0  0  0  0  0  0  0
  1  2  2  0  0  0  0
  1  6  1  0  0  0  0
  1 19  1  0  0  0  0
  2  3  1  0  0  0  0
  2 20  1  0  0  0  0
  3  4  2  0  0  0  0
  3 21  1  0  0  0  0
  4  5  1  0  0  0  0
  4 10  1  0  0  0  0
  5  6  2  0  0  0  0
  5  7  1  0  0  0  0
  6 22  1  0  0  0  0
  7  8  1  0  0  0  0
  7  9  2  0  0  0  0
  8 23  1  0  0  0  0
 10 11  1  0  0  0  0
 10 24  1  0  0  0  0
 11 12  2  0  0  0  0
 11 16  1  0  0  0  0
 12 13  1  0  0  0  0
 12 25  1  0  0  0  0
 13 14  2  0  0  0  0
 13 26  1  0  0  0  0
 14 15  1  0  0  0  0
 14 27  1  0  0  0  0
 15 16  2  0  0  0  0
 15 28  1  0  0  0  0
 16 17  1  0  0  0  0
 17 18  1  0  0  0  0
 18 29  1  0  0  0  0
 18 30  1  0  0  0  0
 18 31  1  0  0  0  0
M  END
> <From>
www.bindingDB.org

> <BindingDB Reactant_set_id>
50940516

> <Ligand InChI>
InChI=1S/C14H13NO3/c1-18-13-9-5-4-8-12(13)15-11-7-3-2-6-10(11)14(16)17/h2-9,15H,1H3,(H,16,17)

> <Ligand InChI Key>
FPIMZRVJKYCPAX-UHFFFAOYSA-N

> <BindingDB MonomerID>
50385709

> <BindingDB Ligand Name>
CHEMBL2043299

> <Target Name Assigned by Curator or DataSource>
Aldo-keto reductase family 1 member C2

> <Target Source Organism According to Curator or DataSource>
Homo sapiens

> <Ki (nM)>


> <IC50 (nM)>
 1280

> <Kd (nM)>


> <EC50 (nM)>


> <kon (M-1-s-1)>


> <koff (s-1)>


> <pH>


> <Temp C>


> <Curation/DataSource>
ChEMBL

> <Article DOI>
10.1021/jm201547v

> <PMID>
22263837

> <PubChem AID>


> <Patent Number>


> <Authors>
Adeniji, AO; Twenter, BM; Byrns, MC; Jin, Y; Chen, M; Winkler, JD; Penning, TM

> <Institution>
University of Pennsylvania

> <Link to Ligand in BindingDB>
http://www.bindingdb.org/bind/chemsearch/marvin/MolStructure.jsp?monomerid=50385709

> <Link to Ligand-Target Pair in BindingDB>
http://www.bindingdb.org/jsp/dbsearch/PrimarySearch_ki.jsp?energyterm=kJ/mole&tag=pol&polymerid=3022&target=Aldo-keto+reductase+family+1+member+C2&column=ki&startPg=0&Increment=50&submit=Search

> <Link to Ligand-Target Pair in BindingDB>
http://www.bindingdb.org/jsp/dbsearch/PrimarySearch_ki.jsp?energyterm=kJ/mole&tag=r21&monomerid=50385709&enzyme=Aldo-keto+reductase+family+1+member+C2&column=ki&startPg=0&Increment=50&submit=Search

> <Ligand HET ID in PDB>


> <PDB ID(s) for Ligand-Target Complex>


> <PubChem CID>
202774

> <PubChem SID>
160864792

> <ChEBI ID of Ligand>


> <ChEMBL ID of Ligand>
CHEMBL2043299

> <DrugBank ID of Ligand>


> <IUPHAR_GRAC ID of Ligand>


> <KEGG ID of Ligand>


> <ZINC ID of Ligand>
ZINC03173666

> <Number of Protein Chains in Target (>1 implies a multichain complex)>
1

> <BindingDB Target Chain Sequence>
MDSKYQCVKLNDGHFMPVLGFGTYAPAEVPKSKALEAVKLAIEAGFHHIDSAHVYNNEEQVGLAIRSKIADGSVKREDIFYTSKLWSNSHRPELVRPALERSLKNLQLDYVDLYLIHFPVSVKPGEEVIPKDENGKILFDTVDLCATWEAMEKCKDAGLAKSIGVSNFNHRLLEMILNKPGLKYKPVCNQVECHPYFNQRKLLDFCKSKDIVLVAYSALGSHREEPWVDPNSPVLLEDPVLCALAKKHKRTPALIALRYQLQRGVVVLAKSYNEQRIRQNVQVFEFQLTSEEMKAIDGLNRNVRYLTLDIFAGPPNYPFSDEY

> <PDB ID(s) of Target Chain>
1IHI,1J96,1XJB,2HDJ,4JQ1,4JQ2,4JQ3,4JQ4,4JQA,4JTQ,4JTR,4L1W,4XO6,4XO7,6F2U

> <UniProt (SwissProt) Recommended Name of Target Chain>
Aldo-keto reductase family 1 member C2

> <UniProt (SwissProt) Entry Name of Target Chain>
AK1C2_HUMAN

> <UniProt (SwissProt) Primary ID of Target Chain>
P52895

> <UniProt (SwissProt) Secondary ID(s) of Target Chain>
A8K2N9,B4DKR9,Q14133,Q5SR16,Q7M4N1,Q96A71

> <UniProt (SwissProt) Alternative ID(s) of Target Chain>


> <UniProt (TrEMBL) Submitted Name of Target Chain>


> <UniProt (TrEMBL) Entry Name of Target Chain>


> <UniProt (TrEMBL) Primary ID of Target Chain>


> <UniProt (TrEMBL) Secondary ID(s) of Target Chain>


> <UniProt (TrEMBL) Alternative ID(s) of Target Chain>


$$$$
BindingDB_50385710_mol_1

Vconf v2.0 Academic SN VC001-00000579
 29 30  0  0  0  0  0  0  0  0999 V2000
   15.8300   -0.9970    0.5640 C   0  0  0  0  0  0  0  0  0  0  0
   15.6180   -2.3370    0.2210 C   0  0  0  0  0  0  0  0  0  0  0
   16.5010   -3.3230    0.6830 C   0  0  0  0  0  0  0  0  0  0  0
   17.6130   -2.9910    1.4960 C   0  0  0  0  0  0  0  0  0  0  0
   17.8280   -1.6260    1.8470 C   0  0  0  0  0  0  0  0  0  0  0
   16.9250   -0.6480    1.3690 C   0  0  0  0  0  0  0  0  0  0  0
   18.9080   -1.1880    2.6590 C   0  0  0  0  0  0  0  0  0  0  0
   19.0720    0.1180    2.9720 O   0  0  0  0  0  0  0  0  0  0  0
   19.7630   -1.9670    3.1360 O   0  0  0  0  0  0  0  0  0  0  0
   18.4750   -3.9570    1.9420 N   0  0  0  0  0  0  0  0  0  0  0
   18.3960   -5.2870    1.6980 C   0  0  0  0  0  0  0  0  0  0  0
   19.1450   -5.8530    0.6520 C   0  0  0  0  0  0  0  0  0  0  0
   19.0750   -7.2330    0.4060 C   0  0  0  0  0  0  0  0  0  0  0
   18.2630   -8.0500    1.2100 C   0  0  0  0  0  0  0  0  0  0  0
   17.5080   -7.5050    2.2740 C   0  0  0  0  0  0  0  0  0  0  0
   17.5910   -6.1120    2.5050 C   0  0  0  0  0  0  0  0  0  0  0
   16.7230   -8.3030    3.0600 N   0  3  0  0  0  0  0  0  0  0  0
   16.1080   -7.8660    3.9970 O   0  0  0  0  0  0  0  0  0  0  0
   16.6090   -9.4860    2.8530 O   0  5  0  0  0  0  0  0  0  0  0
   15.1900   -0.2760    0.2300 H   0  0  0  0  0  0  0  0  0  0  0
   14.8230   -2.5960   -0.3640 H   0  0  0  0  0  0  0  0  0  0  0
   16.3260   -4.2920    0.4180 H   0  0  0  0  0  0  0  0  0  0  0
   17.0550    0.3380    1.6040 H   0  0  0  0  0  0  0  0  0  0  0
   19.8490    0.2890    3.5430 H   0  0  0  0  0  0  0  0  0  0  0
   19.2270   -3.6690    2.4810 H   0  0  0  0  0  0  0  0  0  0  0
   19.7380   -5.2630    0.0670 H   0  0  0  0  0  0  0  0  0  0  0
   19.6160   -7.6440   -0.3560 H   0  0  0  0  0  0  0  0  0  0  0
   18.2240   -9.0520    1.0200 H   0  0  0  0  0  0  0  0  0  0  0
   17.0570   -5.6940    3.2690 H   0  0  0  0  0  0  0  0  0  0  0
  1  2  2  0  0  0  0
  1  6  1  0  0  0  0
  1 20  1  0  0  0  0
  2  3  1  0  0  0  0
  2 21  1  0  0  0  0
  3  4  2  0  0  0  0
  3 22  1  0  0  0  0
  4  5  1  0  0  0  0
  4 10  1  0  0  0  0
  5  6  2  0  0  0  0
  5  7  1  0  0  0  0
  6 23  1  0  0  0  0
  7  8  1  0  0  0  0
  7  9  2  0  0  0  0
  8 24  1  0  0  0  0
 10 11  1  0  0  0  0
 10 25  1  0  0  0  0
 11 12  2  0  0  0  0
 11 16  1  0  0  0  0
 12 13  1  0  0  0  0
 12 26  1  0  0  0  0
 13 14  2  0  0  0  0
 13 27  1  0  0  0  0
 14 15  1  0  0  0  0
 14 28  1  0  0  0  0
 15 16  2  0  0  0  0
 15 17  1  0  0  0  0
 16 29  1  0  0  0  0
 17 18  2  0  0  0  0
 17 19  1  0  0  0  0
M  CHG  1  17   1
M  CHG  1  19  -1
M  END
> <From>
www.bindingDB.org

> <BindingDB Reactant_set_id>
50940517

> <Ligand InChI>
InChI=1S/C13H10N2O4/c16-13(17)11-6-1-2-7-12(11)14-9-4-3-5-10(8-9)15(18)19/h1-8,14H,(H,16,17)

> <Ligand InChI Key>
NBJRFLIUYUFOIR-UHFFFAOYSA-N

> <BindingDB MonomerID>
50385710

> <BindingDB Ligand Name>
CHEMBL2043300

> <Target Name Assigned by Curator or DataSource>
Aldo-keto reductase family 1 member C2

> <Target Source Organism According to Curator or DataSource>
Homo sapiens

> <Ki (nM)>


> <IC50 (nM)>
 510

> <Kd (nM)>


> <EC50 (nM)>


> <kon (M-1-s-1)>


> <koff (s-1)>


> <pH>


> <Temp C>


> <Curation/DataSource>
ChEMBL

> <Article DOI>
10.1021/jm201547v

> <PMID>
22263837

> <PubChem AID>


> <Patent Number>


> <Authors>
Adeniji, AO; Twenter, BM; Byrns, MC; Jin, Y; Chen, M; Winkler, JD; Penning, TM

> <Institution>
University of Pennsylvania

> <Link to Ligand in BindingDB>
http://www.bindingdb.org/bind/chemsearch/marvin/MolStructure.jsp?monomerid=50385710

> <Link to Ligand-Target Pair in BindingDB>
http://www.bindingdb.org/jsp/dbsearch/PrimarySearch_ki.jsp?energyterm=kJ/mole&tag=pol&polymerid=3022&target=Aldo-keto+reductase+family+1+member+C2&column=ki&startPg=0&Increment=50&submit=Search

> <Link to Ligand-Target Pair in BindingDB>
http://www.bindingdb.org/jsp/dbsearch/PrimarySearch_ki.jsp?energyterm=kJ/mole&tag=r21&monomerid=50385710&enzyme=Aldo-keto+reductase+family+1+member+C2&column=ki&startPg=0&Increment=50&submit=Search

> <Ligand HET ID in PDB>


> <PDB ID(s) for Ligand-Target Complex>


> <PubChem CID>
101403

> <PubChem SID>
160864793

> <ChEBI ID of Ligand>


> <ChEMBL ID of Ligand>
CHEMBL2043300

> <DrugBank ID of Ligand>


> <IUPHAR_GRAC ID of Ligand>


> <KEGG ID of Ligand>


> <ZINC ID of Ligand>
ZINC01603353

> <Number of Protein Chains in Target (>1 implies a multichain complex)>
1

> <BindingDB Target Chain Sequence>
MDSKYQCVKLNDGHFMPVLGFGTYAPAEVPKSKALEAVKLAIEAGFHHIDSAHVYNNEEQVGLAIRSKIADGSVKREDIFYTSKLWSNSHRPELVRPALERSLKNLQLDYVDLYLIHFPVSVKPGEEVIPKDENGKILFDTVDLCATWEAMEKCKDAGLAKSIGVSNFNHRLLEMILNKPGLKYKPVCNQVECHPYFNQRKLLDFCKSKDIVLVAYSALGSHREEPWVDPNSPVLLEDPVLCALAKKHKRTPALIALRYQLQRGVVVLAKSYNEQRIRQNVQVFEFQLTSEEMKAIDGLNRNVRYLTLDIFAGPPNYPFSDEY

> <PDB ID(s) of Target Chain>
1IHI,1J96,1XJB,2HDJ,4JQ1,4JQ2,4JQ3,4JQ4,4JQA,4JTQ,4JTR,4L1W,4XO6,4XO7,6F2U

> <UniProt (SwissProt) Recommended Name of Target Chain>
Aldo-keto reductase family 1 member C2

> <UniProt (SwissProt) Entry Name of Target Chain>
AK1C2_HUMAN

> <UniProt (SwissProt) Primary ID of Target Chain>
P52895

> <UniProt (SwissProt) Secondary ID(s) of Target Chain>
A8K2N9,B4DKR9,Q14133,Q5SR16,Q7M4N1,Q96A71

> <UniProt (SwissProt) Alternative ID(s) of Target Chain>


> <UniProt (TrEMBL) Submitted Name of Target Chain>


> <UniProt (TrEMBL) Entry Name of Target Chain>


> <UniProt (TrEMBL) Primary ID of Target Chain>


> <UniProt (TrEMBL) Secondary ID(s) of Target Chain>


> <UniProt (TrEMBL) Alternative ID(s) of Target Chain>


$$$$
BindingDB_50385711_mol_1

Vconf v2.0 Academic SN VC001-00000579
 27 28  0  0  0  0  0  0  0  0999 V2000
    3.2300   -0.5840    0.6460 C   0  0  0  0  0  0  0  0  0  0  0
    4.3770   -1.3820    0.3630 C   0  0  0  0  0  0  0  0  0  0  0
    3.2730    0.8290    0.7830 C   0  0  0  0  0  0  0  0  0  0  0
    5.6050   -0.7880    0.2210 N   0  0  0  0  0  0  0  0  0  0  0
    6.7830   -1.3930   -0.0750 C   0  0  0  0  0  0  0  0  0  0  0
    4.3250    1.4950    0.6680 O   0  0  0  0  0  0  0  0  0  0  0
    7.0010   -1.9940   -1.3320 C   0  0  0  0  0  0  0  0  0  0  0
    2.1580    1.5470    1.0470 O   0  0  0  0  0  0  0  0  0  0  0
    8.2380   -2.5990   -1.6240 C   0  0  0  0  0  0  0  0  0  0  0
    8.4910   -3.3300   -3.1290 Cl  0  0  0  0  0  0  0  0  0  0  0
    1.9750   -1.2210    0.7960 C   0  0  0  0  0  0  0  0  0  0  0
    4.2230   -2.7850    0.2480 C   0  0  0  0  0  0  0  0  0  0  0
    9.0540   -1.9790    0.5870 C   0  0  0  0  0  0  0  0  0  0  0
    7.8190   -1.3760    0.8760 C   0  0  0  0  0  0  0  0  0  0  0
    9.2640   -2.5920   -0.6600 C   0  0  0  0  0  0  0  0  0  0  0
    1.8430   -2.6120    0.6730 C   0  0  0  0  0  0  0  0  0  0  0
    2.9700   -3.3960    0.3990 C   0  0  0  0  0  0  0  0  0  0  0
    5.6510    0.1670    0.3700 H   0  0  0  0  0  0  0  0  0  0  0
    6.2530   -1.9890   -2.0280 H   0  0  0  0  0  0  0  0  0  0  0
    2.3200    2.5110    1.1140 H   0  0  0  0  0  0  0  0  0  0  0
    1.1360   -0.6740    0.9980 H   0  0  0  0  0  0  0  0  0  0  0
    5.0290   -3.3810    0.0580 H   0  0  0  0  0  0  0  0  0  0  0
    9.8010   -1.9710    1.2820 H   0  0  0  0  0  0  0  0  0  0  0
    7.6740   -0.9310    1.7830 H   0  0  0  0  0  0  0  0  0  0  0
   10.1660   -3.0280   -0.8590 H   0  0  0  0  0  0  0  0  0  0  0
    0.9290   -3.0520    0.7850 H   0  0  0  0  0  0  0  0  0  0  0
    2.8800   -4.4080    0.3120 H   0  0  0  0  0  0  0  0  0  0  0
  1  2  2  0  0  0  0
  1  3  1  0  0  0  0
  1 11  1  0  0  0  0
  2  4  1  0  0  0  0
  2 12  1  0  0  0  0
  3  6  2  0  0  0  0
  3  8  1  0  0  0  0
  4  5  1  0  0  0  0
  4 18  1  0  0  0  0
  5  7  2  0  0  0  0
  5 14  1  0  0  0  0
  7  9  1  0  0  0  0
  7 19  1  0  0  0  0
  8 20  1  0  0  0  0
  9 10  1  0  0  0  0
  9 15  2  0  0  0  0
 11 16  2  0  0  0  0
 11 21  1  0  0  0  0
 12 17  2  0  0  0  0
 12 22  1  0  0  0  0
 13 14  2  0  0  0  0
 13 15  1  0  0  0  0
 13 23  1  0  0  0  0
 14 24  1  0  0  0  0
 15 25  1  0  0  0  0
 16 17  1  0  0  0  0
 16 26  1  0  0  0  0
 17 27  1  0  0  0  0
M  END
> <From>
www.bindingDB.org

> <BindingDB Reactant_set_id>
50940518

> <Ligand InChI>
InChI=1S/C13H10ClNO2/c14-9-4-3-5-10(8-9)15-12-7-2-1-6-11(12)13(16)17/h1-8,15H,(H,16,17)

> <Ligand InChI Key>
OVMWPVYEBVFZHM-UHFFFAOYSA-N

> <BindingDB MonomerID>
50385711

> <BindingDB Ligand Name>
CHEMBL22815

> <Target Name Assigned by Curator or DataSource>
Aldo-keto reductase family 1 member C2

> <Target Source Organism According to Curator or DataSource>
Homo sapiens

> <Ki (nM)>


> <IC50 (nM)>
 150

> <Kd (nM)>


> <EC50 (nM)>


> <kon (M-1-s-1)>


> <koff (s-1)>


> <pH>


> <Temp C>


> <Curation/DataSource>
ChEMBL

> <Article DOI>
10.1021/jm201547v

> <PMID>
22263837

> <PubChem AID>


> <Patent Number>


> <Authors>
Adeniji, AO; Twenter, BM; Byrns, MC; Jin, Y; Chen, M; Winkler, JD; Penning, TM

> <Institution>
University of Pennsylvania

> <Link to Ligand in BindingDB>
http://www.bindingdb.org/bind/chemsearch/marvin/MolStructure.jsp?monomerid=50385711

> <Link to Ligand-Target Pair in BindingDB>
http://www.bindingdb.org/jsp/dbsearch/PrimarySearch_ki.jsp?energyterm=kJ/mole&tag=pol&polymerid=3022&target=Aldo-keto+reductase+family+1+member+C2&column=ki&startPg=0&Increment=50&submit=Search

> <Link to Ligand-Target Pair in BindingDB>
http://www.bindingdb.org/jsp/dbsearch/PrimarySearch_ki.jsp?energyterm=kJ/mole&tag=r21&monomerid=50385711&enzyme=Aldo-keto+reductase+family+1+member+C2&column=ki&startPg=0&Increment=50&submit=Search

> <Ligand HET ID in PDB>


> <PDB ID(s) for Ligand-Target Complex>


> <PubChem CID>
83293

> <PubChem SID>
160864794

> <ChEBI ID of Ligand>


> <ChEMBL ID of Ligand>
CHEMBL22815

> <DrugBank ID of Ligand>


> <IUPHAR_GRAC ID of Ligand>


> <KEGG ID of Ligand>


> <ZINC ID of Ligand>
ZINC04099441

> <Number of Protein Chains in Target (>1 implies a multichain complex)>
1

> <BindingDB Target Chain Sequence>
MDSKYQCVKLNDGHFMPVLGFGTYAPAEVPKSKALEAVKLAIEAGFHHIDSAHVYNNEEQVGLAIRSKIADGSVKREDIFYTSKLWSNSHRPELVRPALERSLKNLQLDYVDLYLIHFPVSVKPGEEVIPKDENGKILFDTVDLCATWEAMEKCKDAGLAKSIGVSNFNHRLLEMILNKPGLKYKPVCNQVECHPYFNQRKLLDFCKSKDIVLVAYSALGSHREEPWVDPNSPVLLEDPVLCALAKKHKRTPALIALRYQLQRGVVVLAKSYNEQRIRQNVQVFEFQLTSEEMKAIDGLNRNVRYLTLDIFAGPPNYPFSDEY

> <PDB ID(s) of Target Chain>
1IHI,1J96,1XJB,2HDJ,4JQ1,4JQ2,4JQ3,4JQ4,4JQA,4JTQ,4JTR,4L1W,4XO6,4XO7,6F2U

> <UniProt (SwissProt) Recommended Name of Target Chain>
Aldo-keto reductase family 1 member C2

> <UniProt (SwissProt) Entry Name of Target Chain>
AK1C2_HUMAN

> <UniProt (SwissProt) Primary ID of Target Chain>
P52895

> <UniProt (SwissProt) Secondary ID(s) of Target Chain>
A8K2N9,B4DKR9,Q14133,Q5SR16,Q7M4N1,Q96A71

> <UniProt (SwissProt) Alternative ID(s) of Target Chain>


> <UniProt (TrEMBL) Submitted Name of Target Chain>


> <UniProt (TrEMBL) Entry Name of Target Chain>


> <UniProt (TrEMBL) Primary ID of Target Chain>


> <UniProt (TrEMBL) Secondary ID(s) of Target Chain>


> <UniProt (TrEMBL) Alternative ID(s) of Target Chain>


$$$$
BindingDB_50385712_mol_1

Vconf v2.0 Academic SN VC001-00000579
 31 32  0  0  0  0  0  0  0  0999 V2000
    3.5930    0.6920   -2.6960 O   0  0  0  0  0  0  0  0  0  0  0
   -2.6400   -0.5480    0.6990 O   0  0  0  0  0  0  0  0  0  0  0
   -3.8130   -2.3810    1.0270 O   0  0  0  0  0  0  0  0  0  0  0
   -0.0220   -0.6300    0.2700 N   0  0  0  0  0  0  0  0  0  0  0
   -0.1510   -1.9900    0.3830 C   0  0  0  0  0  0  0  0  0  0  0
   -1.4310   -2.5620    0.6410 C   0  0  0  0  0  0  0  0  0  0  0
    1.1080    0.0720    0.0060 C   0  0  0  0  0  0  0  0  0  0  0
   -2.6180   -1.7950    0.7850 C   0  0  0  0  0  0  0  0  0  0  0
    0.9690   -2.8480    0.2610 C   0  0  0  0  0  0  0  0  0  0  0
    1.7520   -0.0180   -1.2440 C   0  0  0  0  0  0  0  0  0  0  0
   -1.5400   -3.9680    0.7610 C   0  0  0  0  0  0  0  0  0  0  0
    2.9130    0.7380   -1.5120 C   0  0  0  0  0  0  0  0  0  0  0
    1.6140    0.9470    0.9850 C   0  0  0  0  0  0  0  0  0  0  0
    0.8390   -4.2390    0.3830 C   0  0  0  0  0  0  0  0  0  0  0
   -0.4180   -4.8000    0.6330 C   0  0  0  0  0  0  0  0  0  0  0
    3.4150    1.5960   -0.5170 C   0  0  0  0  0  0  0  0  0  0  0
    2.7690    1.7040    0.7260 C   0  0  0  0  0  0  0  0  0  0  0
    3.1730   -0.1260   -3.7920 C   0  0  0  0  0  0  0  0  0  0  0
   -4.5520   -1.7440    1.1070 H   0  0  0  0  0  0  0  0  0  0  0
   -0.8170   -0.0990    0.4210 H   0  0  0  0  0  0  0  0  0  0  0
    1.8980   -2.4640    0.0880 H   0  0  0  0  0  0  0  0  0  0  0
    1.3720   -0.6400   -1.9580 H   0  0  0  0  0  0  0  0  0  0  0
   -2.4450   -4.4050    0.9450 H   0  0  0  0  0  0  0  0  0  0  0
    1.1460    1.0310    1.8880 H   0  0  0  0  0  0  0  0  0  0  0
    1.6590   -4.8390    0.2930 H   0  0  0  0  0  0  0  0  0  0  0
   -0.5180   -5.8120    0.7240 H   0  0  0  0  0  0  0  0  0  0  0
    4.2530    2.1490   -0.7000 H   0  0  0  0  0  0  0  0  0  0  0
    3.1370    2.3330    1.4400 H   0  0  0  0  0  0  0  0  0  0  0
    3.8720    0.0060   -4.6170 H   0  0  0  0  0  0  0  0  0  0  0
    3.1670   -1.1770   -3.4990 H   0  0  0  0  0  0  0  0  0  0  0
    2.1760    0.1690   -4.1240 H   0  0  0  0  0  0  0  0  0  0  0
  1 12  1  0  0  0  0
  1 18  1  0  0  0  0
  2  8  2  0  0  0  0
  3  8  1  0  0  0  0
  3 19  1  0  0  0  0
  4  5  1  0  0  0  0
  4  7  1  0  0  0  0
  4 20  1  0  0  0  0
  5  6  2  0  0  0  0
  5  9  1  0  0  0  0
  6  8  1  0  0  0  0
  6 11  1  0  0  0  0
  7 10  2  0  0  0  0
  7 13  1  0  0  0  0
  9 14  2  0  0  0  0
  9 21  1  0  0  0  0
 10 12  1  0  0  0  0
 10 22  1  0  0  0  0
 11 15  2  0  0  0  0
 11 23  1  0  0  0  0
 12 16  2  0  0  0  0
 13 17  2  0  0  0  0
 13 24  1  0  0  0  0
 14 15  1  0  0  0  0
 14 25  1  0  0  0  0
 15 26  1  0  0  0  0
 16 17  1  0  0  0  0
 16 27  1  0  0  0  0
 17 28  1  0  0  0  0
 18 29  1  0  0  0  0
 18 30  1  0  0  0  0
 18 31  1  0  0  0  0
M  END
> <From>
www.bindingDB.org

> <BindingDB Reactant_set_id>
50940519

> <Ligand InChI>
InChI=1S/C14H13NO3/c1-18-11-6-4-5-10(9-11)15-13-8-3-2-7-12(13)14(16)17/h2-9,15H,1H3,(H,16,17)

> <Ligand InChI Key>
SSRGDXQQJKAWKX-UHFFFAOYSA-N

> <BindingDB MonomerID>
50385712

> <BindingDB Ligand Name>
CHEMBL1328677

> <Target Name Assigned by Curator or DataSource>
Aldo-keto reductase family 1 member C2

> <Target Source Organism According to Curator or DataSource>
Homo sapiens

> <Ki (nM)>


> <IC50 (nM)>
 1110

> <Kd (nM)>


> <EC50 (nM)>


> <kon (M-1-s-1)>


> <koff (s-1)>


> <pH>


> <Temp C>


> <Curation/DataSource>
ChEMBL

> <Article DOI>
10.1021/jm201547v

> <PMID>
22263837

> <PubChem AID>


> <Patent Number>


> <Authors>
Adeniji, AO; Twenter, BM; Byrns, MC; Jin, Y; Chen, M; Winkler, JD; Penning, TM

> <Institution>
University of Pennsylvania

> <Link to Ligand in BindingDB>
http://www.bindingdb.org/bind/chemsearch/marvin/MolStructure.jsp?monomerid=50385712

> <Link to Ligand-Target Pair in BindingDB>
http://www.bindingdb.org/jsp/dbsearch/PrimarySearch_ki.jsp?energyterm=kJ/mole&tag=pol&polymerid=3022&target=Aldo-keto+reductase+family+1+member+C2&column=ki&startPg=0&Increment=50&submit=Search

> <Link to Ligand-Target Pair in BindingDB>
http://www.bindingdb.org/jsp/dbsearch/PrimarySearch_ki.jsp?energyterm=kJ/mole&tag=r21&monomerid=50385712&enzyme=Aldo-keto+reductase+family+1+member+C2&column=ki&startPg=0&Increment=50&submit=Search

> <Ligand HET ID in PDB>


> <PDB ID(s) for Ligand-Target Complex>


> <PubChem CID>
119702

> <PubChem SID>
160864795

> <ChEBI ID of Ligand>


> <ChEMBL ID of Ligand>
CHEMBL1328677

> <DrugBank ID of Ligand>


> <IUPHAR_GRAC ID of Ligand>


> <KEGG ID of Ligand>


> <ZINC ID of Ligand>
ZINC00282516

> <Number of Protein Chains in Target (>1 implies a multichain complex)>
1

> <BindingDB Target Chain Sequence>
MDSKYQCVKLNDGHFMPVLGFGTYAPAEVPKSKALEAVKLAIEAGFHHIDSAHVYNNEEQVGLAIRSKIADGSVKREDIFYTSKLWSNSHRPELVRPALERSLKNLQLDYVDLYLIHFPVSVKPGEEVIPKDENGKILFDTVDLCATWEAMEKCKDAGLAKSIGVSNFNHRLLEMILNKPGLKYKPVCNQVECHPYFNQRKLLDFCKSKDIVLVAYSALGSHREEPWVDPNSPVLLEDPVLCALAKKHKRTPALIALRYQLQRGVVVLAKSYNEQRIRQNVQVFEFQLTSEEMKAIDGLNRNVRYLTLDIFAGPPNYPFSDEY

> <PDB ID(s) of Target Chain>
1IHI,1J96,1XJB,2HDJ,4JQ1,4JQ2,4JQ3,4JQ4,4JQA,4JTQ,4JTR,4L1W,4XO6,4XO7,6F2U

> <UniProt (SwissProt) Recommended Name of Target Chain>
Aldo-keto reductase family 1 member C2

> <UniProt (SwissProt) Entry Name of Target Chain>
AK1C2_HUMAN

> <UniProt (SwissProt) Primary ID of Target Chain>
P52895

> <UniProt (SwissProt) Secondary ID(s) of Target Chain>
A8K2N9,B4DKR9,Q14133,Q5SR16,Q7M4N1,Q96A71

> <UniProt (SwissProt) Alternative ID(s) of Target Chain>


> <UniProt (TrEMBL) Submitted Name of Target Chain>


> <UniProt (TrEMBL) Entry Name of Target Chain>


> <UniProt (TrEMBL) Primary ID of Target Chain>


> <UniProt (TrEMBL) Secondary ID(s) of Target Chain>


> <UniProt (TrEMBL) Alternative ID(s) of Target Chain>


$$$$
BindingDB_50385713_mol_1

Vconf v2.0 Academic SN VC001-00000579
 30 31  0  0  0  0  0  0  0  0999 V2000
    3.1990   -0.5660    0.6570 C   0  0  0  0  0  0  0  0  0  0  0
    4.3480   -1.3660    0.3920 C   0  0  0  0  0  0  0  0  0  0  0
    3.2320    0.8520    0.7300 C   0  0  0  0  0  0  0  0  0  0  0
    5.5670   -0.7710    0.2010 N   0  0  0  0  0  0  0  0  0  0  0
    6.7410   -1.3950   -0.0630 C   0  0  0  0  0  0  0  0  0  0  0
    4.2770    1.5210    0.5700 O   0  0  0  0  0  0  0  0  0  0  0
    2.1140    1.5720    0.9810 O   0  0  0  0  0  0  0  0  0  0  0
    7.0560   -1.7990   -1.3740 C   0  0  0  0  0  0  0  0  0  0  0
    1.9530   -1.2060    0.8580 C   0  0  0  0  0  0  0  0  0  0  0
    8.2830   -2.4340   -1.6510 C   0  0  0  0  0  0  0  0  0  0  0
    4.2050   -2.7750    0.3390 C   0  0  0  0  0  0  0  0  0  0  0
    8.8890   -2.2490    0.7070 C   0  0  0  0  0  0  0  0  0  0  0
    7.6640   -1.6150    0.9760 C   0  0  0  0  0  0  0  0  0  0  0
    9.1970   -2.6580   -0.6020 C   0  0  0  0  0  0  0  0  0  0  0
    8.5920   -2.8510   -3.0280 C   0  0  0  0  0  0  0  0  0  0  0
    1.8330   -2.6020    0.8040 C   0  0  0  0  0  0  0  0  0  0  0
    2.9610   -3.3880    0.5430 C   0  0  0  0  0  0  0  0  0  0  0
    5.6070    0.1940    0.2710 H   0  0  0  0  0  0  0  0  0  0  0
    2.2690    2.5390    1.0070 H   0  0  0  0  0  0  0  0  0  0  0
    6.3900   -1.6310   -2.1300 H   0  0  0  0  0  0  0  0  0  0  0
    1.1120   -0.6570    1.0480 H   0  0  0  0  0  0  0  0  0  0  0
    5.0130   -3.3690    0.1520 H   0  0  0  0  0  0  0  0  0  0  0
    9.5550   -2.4120    1.4620 H   0  0  0  0  0  0  0  0  0  0  0
    7.4460   -1.3180    1.9270 H   0  0  0  0  0  0  0  0  0  0  0
   10.0890   -3.1170   -0.7890 H   0  0  0  0  0  0  0  0  0  0  0
    9.5710   -3.3290   -3.0850 H   0  0  0  0  0  0  0  0  0  0  0
    7.8370   -3.5580   -3.3730 H   0  0  0  0  0  0  0  0  0  0  0
    8.5910   -1.9780   -3.6830 H   0  0  0  0  0  0  0  0  0  0  0
    0.9250   -3.0440    0.9540 H   0  0  0  0  0  0  0  0  0  0  0
    2.8790   -4.4040    0.5030 H   0  0  0  0  0  0  0  0  0  0  0
  1  2  2  0  0  0  0
  1  3  1  0  0  0  0
  1  9  1  0  0  0  0
  2  4  1  0  0  0  0
  2 11  1  0  0  0  0
  3  6  2  0  0  0  0
  3  7  1  0  0  0  0
  4  5  1  0  0  0  0
  4 18  1  0  0  0  0
  5  8  2  0  0  0  0
  5 13  1  0  0  0  0
  7 19  1  0  0  0  0
  8 10  1  0  0  0  0
  8 20  1  0  0  0  0
  9 16  2  0  0  0  0
  9 21  1  0  0  0  0
 10 14  2  0  0  0  0
 10 15  1  0  0  0  0
 11 17  2  0  0  0  0
 11 22  1  0  0  0  0
 12 13  2  0  0  0  0
 12 14  1  0  0  0  0
 12 23  1  0  0  0  0
 13 24  1  0  0  0  0
 14 25  1  0  0  0  0
 15 26  1  0  0  0  0
 15 27  1  0  0  0  0
 15 28  1  0  0  0  0
 16 17  1  0  0  0  0
 16 29  1  0  0  0  0
 17 30  1  0  0  0  0
M  END
> <From>
www.bindingDB.org

> <BindingDB Reactant_set_id>
50940520

> <Ligand InChI>
InChI=1S/C14H13NO2/c1-10-5-4-6-11(9-10)15-13-8-3-2-7-12(13)14(16)17/h2-9,15H,1H3,(H,16,17)

> <Ligand InChI Key>
JODCQKTVDXZQEP-UHFFFAOYSA-N

> <BindingDB MonomerID>
50385713

> <BindingDB Ligand Name>
CHEMBL23479

> <Target Name Assigned by Curator or DataSource>
Aldo-keto reductase family 1 member C2

> <Target Source Organism According to Curator or DataSource>
Homo sapiens

> <Ki (nM)>


> <IC50 (nM)>
 380

> <Kd (nM)>


> <EC50 (nM)>


> <kon (M-1-s-1)>


> <koff (s-1)>


> <pH>


> <Temp C>


> <Curation/DataSource>
ChEMBL

> <Article DOI>
10.1021/jm201547v

> <PMID>
22263837

> <PubChem AID>


> <Patent Number>


> <Authors>
Adeniji, AO; Twenter, BM; Byrns, MC; Jin, Y; Chen, M; Winkler, JD; Penning, TM

> <Institution>
University of Pennsylvania

> <Link to Ligand in BindingDB>
http://www.bindingdb.org/bind/chemsearch/marvin/MolStructure.jsp?monomerid=50385713

> <Link to Ligand-Target Pair in BindingDB>
http://www.bindingdb.org/jsp/dbsearch/PrimarySearch_ki.jsp?energyterm=kJ/mole&tag=pol&polymerid=3022&target=Aldo-keto+reductase+family+1+member+C2&column=ki&startPg=0&Increment=50&submit=Search

> <Link to Ligand-Target Pair in BindingDB>
http://www.bindingdb.org/jsp/dbsearch/PrimarySearch_ki.jsp?energyterm=kJ/mole&tag=r21&monomerid=50385713&enzyme=Aldo-keto+reductase+family+1+member+C2&column=ki&startPg=0&Increment=50&submit=Search

> <Ligand HET ID in PDB>


> <PDB ID(s) for Ligand-Target Complex>


> <PubChem CID>
85472

> <PubChem SID>
160864796

> <ChEBI ID of Ligand>


> <ChEMBL ID of Ligand>
CHEMBL23479

> <DrugBank ID of Ligand>


> <IUPHAR_GRAC ID of Ligand>


> <KEGG ID of Ligand>


> <ZINC ID of Ligand>
ZINC05420064

> <Number of Protein Chains in Target (>1 implies a multichain complex)>
1

> <BindingDB Target Chain Sequence>
MDSKYQCVKLNDGHFMPVLGFGTYAPAEVPKSKALEAVKLAIEAGFHHIDSAHVYNNEEQVGLAIRSKIADGSVKREDIFYTSKLWSNSHRPELVRPALERSLKNLQLDYVDLYLIHFPVSVKPGEEVIPKDENGKILFDTVDLCATWEAMEKCKDAGLAKSIGVSNFNHRLLEMILNKPGLKYKPVCNQVECHPYFNQRKLLDFCKSKDIVLVAYSALGSHREEPWVDPNSPVLLEDPVLCALAKKHKRTPALIALRYQLQRGVVVLAKSYNEQRIRQNVQVFEFQLTSEEMKAIDGLNRNVRYLTLDIFAGPPNYPFSDEY

> <PDB ID(s) of Target Chain>
1IHI,1J96,1XJB,2HDJ,4JQ1,4JQ2,4JQ3,4JQ4,4JQA,4JTQ,4JTR,4L1W,4XO6,4XO7,6F2U

> <UniProt (SwissProt) Recommended Name of Target Chain>
Aldo-keto reductase family 1 member C2

> <UniProt (SwissProt) Entry Name of Target Chain>
AK1C2_HUMAN

> <UniProt (SwissProt) Primary ID of Target Chain>
P52895

> <UniProt (SwissProt) Secondary ID(s) of Target Chain>
A8K2N9,B4DKR9,Q14133,Q5SR16,Q7M4N1,Q96A71

> <UniProt (SwissProt) Alternative ID(s) of Target Chain>


> <UniProt (TrEMBL) Submitted Name of Target Chain>


> <UniProt (TrEMBL) Entry Name of Target Chain>


> <UniProt (TrEMBL) Primary ID of Target Chain>


> <UniProt (TrEMBL) Secondary ID(s) of Target Chain>


> <UniProt (TrEMBL) Alternative ID(s) of Target Chain>


$$$$
BindingDB_50385714_mol_1

Vconf v2.0 Academic SN VC001-00000579
 30 31  0  0  0  0  0  0  0  0999 V2000
    2.2600    2.0300    0.6500 C   0  0  0  0  0  0  0  0  0  0  0
    2.1430    0.6410    0.3530 C   0  0  0  0  0  0  0  0  0  0  0
    3.5040    2.7130    0.7180 C   0  0  0  0  0  0  0  0  0  0  0
    3.5840   -4.6790    1.6080 C   0  0  0  0  0  0  0  0  0  0  0
    3.2650   -0.1060    0.1100 N   0  0  0  0  0  0  0  0  0  0  0
    3.4770   -3.7580    0.5810 C   0  0  0  0  0  0  0  0  0  0  0
    3.3080   -1.4290   -0.1770 C   0  0  0  0  0  0  0  0  0  0  0
    3.4240   -2.3740    0.8600 C   0  0  0  0  0  0  0  0  0  0  0
    4.6030    2.1500    0.5230 O   0  0  0  0  0  0  0  0  0  0  0
    3.6240   -5.8830    1.3990 O   0  0  0  0  0  0  0  0  0  0  0
    3.5700    4.0330    1.0060 O   0  0  0  0  0  0  0  0  0  0  0
    3.6470   -4.3020    2.8740 O   0  0  0  0  0  0  0  0  0  0  0
    1.0840    2.7780    0.8930 C   0  0  0  0  0  0  0  0  0  0  0
    0.8530    0.0550    0.3140 C   0  0  0  0  0  0  0  0  0  0  0
    3.4170   -4.1740   -0.7690 C   0  0  0  0  0  0  0  0  0  0  0
    3.3100   -3.2350   -1.8080 C   0  0  0  0  0  0  0  0  0  0  0
    3.2580   -1.8640   -1.5140 C   0  0  0  0  0  0  0  0  0  0  0
   -0.1830    2.1800    0.8480 C   0  0  0  0  0  0  0  0  0  0  0
   -0.2990    0.8150    0.5590 C   0  0  0  0  0  0  0  0  0  0  0
    4.1200    0.3480    0.1460 H   0  0  0  0  0  0  0  0  0  0  0
    3.4670   -2.0470    1.8270 H   0  0  0  0  0  0  0  0  0  0  0
    4.4840    4.3840    1.0250 H   0  0  0  0  0  0  0  0  0  0  0
    3.7220   -5.0500    3.5020 H   0  0  0  0  0  0  0  0  0  0  0
    1.1390    3.7760    1.1070 H   0  0  0  0  0  0  0  0  0  0  0
    0.7430   -0.9370    0.1050 H   0  0  0  0  0  0  0  0  0  0  0
    3.4520   -5.1680   -1.0010 H   0  0  0  0  0  0  0  0  0  0  0
    3.2700   -3.5500   -2.7780 H   0  0  0  0  0  0  0  0  0  0  0
    3.1800   -1.1840   -2.2710 H   0  0  0  0  0  0  0  0  0  0  0
   -1.0190    2.7370    1.0270 H   0  0  0  0  0  0  0  0  0  0  0
   -1.2190    0.3750    0.5260 H   0  0  0  0  0  0  0  0  0  0  0
  1  2  2  0  0  0  0
  1  3  1  0  0  0  0
  1 13  1  0  0  0  0
  2  5  1  0  0  0  0
  2 14  1  0  0  0  0
  3  9  2  0  0  0  0
  3 11  1  0  0  0  0
  4  6  1  0  0  0  0
  4 10  2  0  0  0  0
  4 12  1  0  0  0  0
  5  7  1  0  0  0  0
  5 20  1  0  0  0  0
  6  8  2  0  0  0  0
  6 15  1  0  0  0  0
  7  8  1  0  0  0  0
  7 17  2  0  0  0  0
  8 21  1  0  0  0  0
 11 22  1  0  0  0  0
 12 23  1  0  0  0  0
 13 18  2  0  0  0  0
 13 24  1  0  0  0  0
 14 19  2  0  0  0  0
 14 25  1  0  0  0  0
 15 16  2  0  0  0  0
 15 26  1  0  0  0  0
 16 17  1  0  0  0  0
 16 27  1  0  0  0  0
 17 28  1  0  0  0  0
 18 19  1  0  0  0  0
 18 29  1  0  0  0  0
 19 30  1  0  0  0  0
M  END
> <From>
www.bindingDB.org

> <BindingDB Reactant_set_id>
50940521

> <Ligand InChI>
InChI=1S/C14H11NO4/c16-13(17)9-4-3-5-10(8-9)15-12-7-2-1-6-11(12)14(18)19/h1-8,15H,(H,16,17)(H,18,19)

> <Ligand InChI Key>
XBGBRSWGOUAIBM-UHFFFAOYSA-N

> <BindingDB MonomerID>
50385714

> <BindingDB Ligand Name>
CHEMBL348522

> <Target Name Assigned by Curator or DataSource>
Aldo-keto reductase family 1 member C2

> <Target Source Organism According to Curator or DataSource>
Homo sapiens

> <Ki (nM)>


> <IC50 (nM)>
 4160

> <Kd (nM)>


> <EC50 (nM)>


> <kon (M-1-s-1)>


> <koff (s-1)>


> <pH>


> <Temp C>


> <Curation/DataSource>
ChEMBL

> <Article DOI>
10.1021/jm201547v

> <PMID>
22263837

> <PubChem AID>


> <Patent Number>


> <Authors>
Adeniji, AO; Twenter, BM; Byrns, MC; Jin, Y; Chen, M; Winkler, JD; Penning, TM

> <Institution>
University of Pennsylvania

> <Link to Ligand in BindingDB>
http://www.bindingdb.org/bind/chemsearch/marvin/MolStructure.jsp?monomerid=50385714

> <Link to Ligand-Target Pair in BindingDB>
http://www.bindingdb.org/jsp/dbsearch/PrimarySearch_ki.jsp?energyterm=kJ/mole&tag=pol&polymerid=3022&target=Aldo-keto+reductase+family+1+member+C2&column=ki&startPg=0&Increment=50&submit=Search

> <Link to Ligand-Target Pair in BindingDB>
http://www.bindingdb.org/jsp/dbsearch/PrimarySearch_ki.jsp?energyterm=kJ/mole&tag=r21&monomerid=50385714&enzyme=Aldo-keto+reductase+family+1+member+C2&column=ki&startPg=0&Increment=50&submit=Search

> <Ligand HET ID in PDB>


> <PDB ID(s) for Ligand-Target Complex>


> <PubChem CID>
97298

> <PubChem SID>
160864797

> <ChEBI ID of Ligand>


> <ChEMBL ID of Ligand>
CHEMBL348522

> <DrugBank ID of Ligand>


> <IUPHAR_GRAC ID of Ligand>


> <KEGG ID of Ligand>


> <ZINC ID of Ligand>
ZINC01704343

> <Number of Protein Chains in Target (>1 implies a multichain complex)>
1

> <BindingDB Target Chain Sequence>
MDSKYQCVKLNDGHFMPVLGFGTYAPAEVPKSKALEAVKLAIEAGFHHIDSAHVYNNEEQVGLAIRSKIADGSVKREDIFYTSKLWSNSHRPELVRPALERSLKNLQLDYVDLYLIHFPVSVKPGEEVIPKDENGKILFDTVDLCATWEAMEKCKDAGLAKSIGVSNFNHRLLEMILNKPGLKYKPVCNQVECHPYFNQRKLLDFCKSKDIVLVAYSALGSHREEPWVDPNSPVLLEDPVLCALAKKHKRTPALIALRYQLQRGVVVLAKSYNEQRIRQNVQVFEFQLTSEEMKAIDGLNRNVRYLTLDIFAGPPNYPFSDEY

> <PDB ID(s) of Target Chain>
1IHI,1J96,1XJB,2HDJ,4JQ1,4JQ2,4JQ3,4JQ4,4JQA,4JTQ,4JTR,4L1W,4XO6,4XO7,6F2U

> <UniProt (SwissProt) Recommended Name of Target Chain>
Aldo-keto reductase family 1 member C2

> <UniProt (SwissProt) Entry Name of Target Chain>
AK1C2_HUMAN

> <UniProt (SwissProt) Primary ID of Target Chain>
P52895

> <UniProt (SwissProt) Secondary ID(s) of Target Chain>
A8K2N9,B4DKR9,Q14133,Q5SR16,Q7M4N1,Q96A71

> <UniProt (SwissProt) Alternative ID(s) of Target Chain>


> <UniProt (TrEMBL) Submitted Name of Target Chain>


> <UniProt (TrEMBL) Entry Name of Target Chain>


> <UniProt (TrEMBL) Primary ID of Target Chain>


> <UniProt (TrEMBL) Secondary ID(s) of Target Chain>


> <UniProt (TrEMBL) Alternative ID(s) of Target Chain>


$$$$
BindingDB_50385715_mol_1

Vconf v2.0 Academic SN VC001-00000579
 32 33  0  0  0  0  0  0  0  0999 V2000
    1.1370  -14.0880    1.0960 C   0  0  0  0  0  0  0  0  0  0  0
    1.4190  -15.0080    0.0800 C   0  0  0  0  0  0  0  0  0  0  0
    2.5890  -15.7760    0.1410 C   0  0  0  0  0  0  0  0  0  0  0
    3.5160  -15.6330    1.2010 C   0  0  0  0  0  0  0  0  0  0  0
    3.2100  -14.7180    2.2530 C   0  0  0  0  0  0  0  0  0  0  0
    2.0210  -13.9530    2.1750 C   0  0  0  0  0  0  0  0  0  0  0
    4.0450  -14.5080    3.3850 C   0  0  0  0  0  0  0  0  0  0  0
    3.7120  -13.6300    4.3580 O   0  0  0  0  0  0  0  0  0  0  0
    5.1300  -15.1080    3.5560 O   0  0  0  0  0  0  0  0  0  0  0
    4.6590  -16.3870    1.2940 N   0  0  0  0  0  0  0  0  0  0  0
    5.3580  -17.1310    0.3850 C   0  0  0  0  0  0  0  0  0  0  0
    5.2290  -17.0950   -1.0210 C   0  0  0  0  0  0  0  0  0  0  0
    6.0300  -17.9080   -1.8410 C   0  0  0  0  0  0  0  0  0  0  0
    7.0010  -18.7700   -1.2860 C   0  0  0  0  0  0  0  0  0  0  0
    7.1510  -18.7800    0.1180 C   0  0  0  0  0  0  0  0  0  0  0
    6.3490  -17.9670    0.9350 C   0  0  0  0  0  0  0  0  0  0  0
    7.8120  -19.5990   -2.1030 C   0  0  0  0  0  0  0  0  0  0  0
    7.7000  -19.6250   -3.5690 C   0  0  0  0  0  0  0  0  0  0  0
    8.6680  -20.3560   -1.5900 O   0  0  0  0  0  0  0  0  0  0  0
    0.2850  -13.5280    1.0580 H   0  0  0  0  0  0  0  0  0  0  0
    0.7660  -15.1290   -0.6940 H   0  0  0  0  0  0  0  0  0  0  0
    2.7260  -16.4790   -0.5810 H   0  0  0  0  0  0  0  0  0  0  0
    1.7860  -13.2820    2.9090 H   0  0  0  0  0  0  0  0  0  0  0
    4.3690  -13.5810    5.0830 H   0  0  0  0  0  0  0  0  0  0  0
    5.0580  -16.3940    2.1750 H   0  0  0  0  0  0  0  0  0  0  0
    4.5850  -16.4500   -1.4720 H   0  0  0  0  0  0  0  0  0  0  0
    5.9040  -17.8520   -2.8520 H   0  0  0  0  0  0  0  0  0  0  0
    7.8500  -19.3810    0.5580 H   0  0  0  0  0  0  0  0  0  0  0
    6.4850  -17.9960    1.9470 H   0  0  0  0  0  0  0  0  0  0  0
    8.4150  -20.3360   -3.9840 H   0  0  0  0  0  0  0  0  0  0  0
    6.6940  -19.9280   -3.8590 H   0  0  0  0  0  0  0  0  0  0  0
    7.9140  -18.6350   -3.9730 H   0  0  0  0  0  0  0  0  0  0  0
  1  2  2  0  0  0  0
  1  6  1  0  0  0  0
  1 20  1  0  0  0  0
  2  3  1  0  0  0  0
  2 21  1  0  0  0  0
  3  4  2  0  0  0  0
  3 22  1  0  0  0  0
  4  5  1  0  0  0  0
  4 10  1  0  0  0  0
  5  6  2  0  0  0  0
  5  7  1  0  0  0  0
  6 23  1  0  0  0  0
  7  8  1  0  0  0  0
  7  9  2  0  0  0  0
  8 24  1  0  0  0  0
 10 11  1  0  0  0  0
 10 25  1  0  0  0  0
 11 12  2  0  0  0  0
 11 16  1  0  0  0  0
 12 13  1  0  0  0  0
 12 26  1  0  0  0  0
 13 14  2  0  0  0  0
 13 27  1  0  0  0  0
 14 15  1  0  0  0  0
 14 17  1  0  0  0  0
 15 16  2  0  0  0  0
 15 28  1  0  0  0  0
 16 29  1  0  0  0  0
 17 18  1  0  0  0  0
 17 19  2  0  0  0  0
 18 30  1  0  0  0  0
 18 31  1  0  0  0  0
 18 32  1  0  0  0  0
M  END
> <From>
www.bindingDB.org

> <BindingDB Reactant_set_id>
50940523

> <Ligand InChI>
InChI=1S/C15H13NO3/c1-10(17)11-6-8-12(9-7-11)16-14-5-3-2-4-13(14)15(18)19/h2-9,16H,1H3,(H,18,19)

> <Ligand InChI Key>
QYOXABROWSLTCG-UHFFFAOYSA-N

> <BindingDB MonomerID>
50385715

> <BindingDB Ligand Name>
CHEMBL2043302

> <Target Name Assigned by Curator or DataSource>
Aldo-keto reductase family 1 member C2

> <Target Source Organism According to Curator or DataSource>
Homo sapiens

> <Ki (nM)>


> <IC50 (nM)>
 400

> <Kd (nM)>


> <EC50 (nM)>


> <kon (M-1-s-1)>


> <koff (s-1)>


> <pH>


> <Temp C>


> <Curation/DataSource>
ChEMBL

> <Article DOI>
10.1021/jm201547v

> <PMID>
22263837

> <PubChem AID>


> <Patent Number>


> <Authors>
Adeniji, AO; Twenter, BM; Byrns, MC; Jin, Y; Chen, M; Winkler, JD; Penning, TM

> <Institution>
University of Pennsylvania

> <Link to Ligand in BindingDB>
http://www.bindingdb.org/bind/chemsearch/marvin/MolStructure.jsp?monomerid=50385715

> <Link to Ligand-Target Pair in BindingDB>
http://www.bindingdb.org/jsp/dbsearch/PrimarySearch_ki.jsp?energyterm=kJ/mole&tag=pol&polymerid=3022&target=Aldo-keto+reductase+family+1+member+C2&column=ki&startPg=0&Increment=50&submit=Search

> <Link to Ligand-Target Pair in BindingDB>
http://www.bindingdb.org/jsp/dbsearch/PrimarySearch_ki.jsp?energyterm=kJ/mole&tag=r21&monomerid=50385715&enzyme=Aldo-keto+reductase+family+1+member+C2&column=ki&startPg=0&Increment=50&submit=Search

> <Ligand HET ID in PDB>


> <PDB ID(s) for Ligand-Target Complex>


> <PubChem CID>
12847796

> <PubChem SID>
160864798

> <ChEBI ID of Ligand>


> <ChEMBL ID of Ligand>
CHEMBL2043302

> <DrugBank ID of Ligand>


> <IUPHAR_GRAC ID of Ligand>


> <KEGG ID of Ligand>


> <ZINC ID of Ligand>
ZINC25496963

> <Number of Protein Chains in Target (>1 implies a multichain complex)>
1

> <BindingDB Target Chain Sequence>
MDSKYQCVKLNDGHFMPVLGFGTYAPAEVPKSKALEAVKLAIEAGFHHIDSAHVYNNEEQVGLAIRSKIADGSVKREDIFYTSKLWSNSHRPELVRPALERSLKNLQLDYVDLYLIHFPVSVKPGEEVIPKDENGKILFDTVDLCATWEAMEKCKDAGLAKSIGVSNFNHRLLEMILNKPGLKYKPVCNQVECHPYFNQRKLLDFCKSKDIVLVAYSALGSHREEPWVDPNSPVLLEDPVLCALAKKHKRTPALIALRYQLQRGVVVLAKSYNEQRIRQNVQVFEFQLTSEEMKAIDGLNRNVRYLTLDIFAGPPNYPFSDEY

> <PDB ID(s) of Target Chain>
1IHI,1J96,1XJB,2HDJ,4JQ1,4JQ2,4JQ3,4JQ4,4JQA,4JTQ,4JTR,4L1W,4XO6,4XO7,6F2U

> <UniProt (SwissProt) Recommended Name of Target Chain>
Aldo-keto reductase family 1 member C2

> <UniProt (SwissProt) Entry Name of Target Chain>
AK1C2_HUMAN

> <UniProt (SwissProt) Primary ID of Target Chain>
P52895

> <UniProt (SwissProt) Secondary ID(s) of Target Chain>
A8K2N9,B4DKR9,Q14133,Q5SR16,Q7M4N1,Q96A71

> <UniProt (SwissProt) Alternative ID(s) of Target Chain>


> <UniProt (TrEMBL) Submitted Name of Target Chain>


> <UniProt (TrEMBL) Entry Name of Target Chain>


> <UniProt (TrEMBL) Primary ID of Target Chain>


> <UniProt (TrEMBL) Secondary ID(s) of Target Chain>


> <UniProt (TrEMBL) Alternative ID(s) of Target Chain>


$$$$
BindingDB_50385716_mol_1

Vconf v2.0 Academic SN VC001-00000579
 27 28  0  0  0  0  0  0  0  0999 V2000
    6.3790  -14.4200    0.5330 C   0  0  0  0  0  0  0  0  0  0  0
    6.1650  -15.7660    0.2130 C   0  0  0  0  0  0  0  0  0  0  0
    7.0370  -16.7470    0.7050 C   0  0  0  0  0  0  0  0  0  0  0
    8.1390  -16.4040    1.5280 C   0  0  0  0  0  0  0  0  0  0  0
    8.3560  -15.0340    1.8560 C   0  0  0  0  0  0  0  0  0  0  0
    7.4640  -14.0610    1.3460 C   0  0  0  0  0  0  0  0  0  0  0
    9.4260  -14.5850    2.6740 C   0  0  0  0  0  0  0  0  0  0  0
    9.5950  -13.2730    2.9580 O   0  0  0  0  0  0  0  0  0  0  0
   10.2700  -15.3570    3.1790 O   0  0  0  0  0  0  0  0  0  0  0
    8.9900  -17.3660    2.0060 N   0  0  0  0  0  0  0  0  0  0  0
    8.9100  -18.6990    1.7770 C   0  0  0  0  0  0  0  0  0  0  0
    8.1760  -19.5230    2.6510 C   0  0  0  0  0  0  0  0  0  0  0
    8.0960  -20.9070    2.4170 C   0  0  0  0  0  0  0  0  0  0  0
    8.7560  -21.4750    1.3100 C   0  0  0  0  0  0  0  0  0  0  0
    9.4970  -20.6520    0.4400 C   0  0  0  0  0  0  0  0  0  0  0
    9.5760  -19.2690    0.6760 C   0  0  0  0  0  0  0  0  0  0  0
    8.6600  -23.1400    1.0270 Cl  0  0  0  0  0  0  0  0  0  0  0
    5.7470  -13.7030    0.1770 H   0  0  0  0  0  0  0  0  0  0  0
    5.3760  -16.0330   -0.3780 H   0  0  0  0  0  0  0  0  0  0  0
    6.8600  -17.7200    0.4580 H   0  0  0  0  0  0  0  0  0  0  0
    7.5950  -13.0720    1.5650 H   0  0  0  0  0  0  0  0  0  0  0
   10.3680  -13.0940    3.5330 H   0  0  0  0  0  0  0  0  0  0  0
    9.7260  -17.0750    2.5630 H   0  0  0  0  0  0  0  0  0  0  0
    7.6950  -19.1180    3.4550 H   0  0  0  0  0  0  0  0  0  0  0
    7.5570  -21.4930    3.0560 H   0  0  0  0  0  0  0  0  0  0  0
    9.9810  -21.0510   -0.3650 H   0  0  0  0  0  0  0  0  0  0  0
   10.1150  -18.6770    0.0420 H   0  0  0  0  0  0  0  0  0  0  0
  1  2  2  0  0  0  0
  1  6  1  0  0  0  0
  1 18  1  0  0  0  0
  2  3  1  0  0  0  0
  2 19  1  0  0  0  0
  3  4  2  0  0  0  0
  3 20  1  0  0  0  0
  4  5  1  0  0  0  0
  4 10  1  0  0  0  0
  5  6  2  0  0  0  0
  5  7  1  0  0  0  0
  6 21  1  0  0  0  0
  7  8  1  0  0  0  0
  7  9  2  0  0  0  0
  8 22  1  0  0  0  0
 10 11  1  0  0  0  0
 10 23  1  0  0  0  0
 11 12  2  0  0  0  0
 11 16  1  0  0  0  0
 12 13  1  0  0  0  0
 12 24  1  0  0  0  0
 13 14  2  0  0  0  0
 13 25  1  0  0  0  0
 14 15  1  0  0  0  0
 14 17  1  0  0  0  0
 15 16  2  0  0  0  0
 15 26  1  0  0  0  0
 16 27  1  0  0  0  0
M  END
> <From>
www.bindingDB.org

> <BindingDB Reactant_set_id>
50940524

> <Ligand InChI>
InChI=1S/C13H10ClNO2/c14-9-5-7-10(8-6-9)15-12-4-2-1-3-11(12)13(16)17/h1-8,15H,(H,16,17)

> <Ligand InChI Key>
YZTPXKMADXYVOJ-UHFFFAOYSA-N

> <BindingDB MonomerID>
50385716

> <BindingDB Ligand Name>
CHEMBL2043303

> <Target Name Assigned by Curator or DataSource>
Aldo-keto reductase family 1 member C2

> <Target Source Organism According to Curator or DataSource>
Homo sapiens

> <Ki (nM)>


> <IC50 (nM)>
 410

> <Kd (nM)>


> <EC50 (nM)>


> <kon (M-1-s-1)>


> <koff (s-1)>


> <pH>


> <Temp C>


> <Curation/DataSource>
ChEMBL

> <Article DOI>
10.1021/jm201547v

> <PMID>
22263837

> <PubChem AID>


> <Patent Number>


> <Authors>
Adeniji, AO; Twenter, BM; Byrns, MC; Jin, Y; Chen, M; Winkler, JD; Penning, TM

> <Institution>
University of Pennsylvania

> <Link to Ligand in BindingDB>
http://www.bindingdb.org/bind/chemsearch/marvin/MolStructure.jsp?monomerid=50385716

> <Link to Ligand-Target Pair in BindingDB>
http://www.bindingdb.org/jsp/dbsearch/PrimarySearch_ki.jsp?energyterm=kJ/mole&tag=pol&polymerid=3022&target=Aldo-keto+reductase+family+1+member+C2&column=ki&startPg=0&Increment=50&submit=Search

> <Link to Ligand-Target Pair in BindingDB>
http://www.bindingdb.org/jsp/dbsearch/PrimarySearch_ki.jsp?energyterm=kJ/mole&tag=r21&monomerid=50385716&enzyme=Aldo-keto+reductase+family+1+member+C2&column=ki&startPg=0&Increment=50&submit=Search

> <Ligand HET ID in PDB>


> <PDB ID(s) for Ligand-Target Complex>


> <PubChem CID>
459316

> <PubChem SID>
160864799

> <ChEBI ID of Ligand>


> <ChEMBL ID of Ligand>
CHEMBL2043303

> <DrugBank ID of Ligand>


> <IUPHAR_GRAC ID of Ligand>


> <KEGG ID of Ligand>


> <ZINC ID of Ligand>
ZINC00347210

> <Number of Protein Chains in Target (>1 implies a multichain complex)>
1

> <BindingDB Target Chain Sequence>
MDSKYQCVKLNDGHFMPVLGFGTYAPAEVPKSKALEAVKLAIEAGFHHIDSAHVYNNEEQVGLAIRSKIADGSVKREDIFYTSKLWSNSHRPELVRPALERSLKNLQLDYVDLYLIHFPVSVKPGEEVIPKDENGKILFDTVDLCATWEAMEKCKDAGLAKSIGVSNFNHRLLEMILNKPGLKYKPVCNQVECHPYFNQRKLLDFCKSKDIVLVAYSALGSHREEPWVDPNSPVLLEDPVLCALAKKHKRTPALIALRYQLQRGVVVLAKSYNEQRIRQNVQVFEFQLTSEEMKAIDGLNRNVRYLTLDIFAGPPNYPFSDEY

> <PDB ID(s) of Target Chain>
1IHI,1J96,1XJB,2HDJ,4JQ1,4JQ2,4JQ3,4JQ4,4JQA,4JTQ,4JTR,4L1W,4XO6,4XO7,6F2U

> <UniProt (SwissProt) Recommended Name of Target Chain>
Aldo-keto reductase family 1 member C2

> <UniProt (SwissProt) Entry Name of Target Chain>
AK1C2_HUMAN

> <UniProt (SwissProt) Primary ID of Target Chain>
P52895

> <UniProt (SwissProt) Secondary ID(s) of Target Chain>
A8K2N9,B4DKR9,Q14133,Q5SR16,Q7M4N1,Q96A71

> <UniProt (SwissProt) Alternative ID(s) of Target Chain>


> <UniProt (TrEMBL) Submitted Name of Target Chain>


> <UniProt (TrEMBL) Entry Name of Target Chain>


> <UniProt (TrEMBL) Primary ID of Target Chain>


> <UniProt (TrEMBL) Secondary ID(s) of Target Chain>


> <UniProt (TrEMBL) Alternative ID(s) of Target Chain>


$$$$
BindingDB_50385717_mol_1

Vconf v2.0 Academic SN VC001-00000579
 30 31  0  0  0  0  0  0  0  0999 V2000
   15.5410  -14.2240    0.5320 C   0  0  0  0  0  0  0  0  0  0  0
   15.2950  -15.5640    0.2110 C   0  0  0  0  0  0  0  0  0  0  0
   16.1410  -16.5660    0.7080 C   0  0  0  0  0  0  0  0  0  0  0
   17.2490  -16.2500    1.5330 C   0  0  0  0  0  0  0  0  0  0  0
   17.4990  -14.8860    1.8590 C   0  0  0  0  0  0  0  0  0  0  0
   16.6310  -13.8910    1.3480 C   0  0  0  0  0  0  0  0  0  0  0
   18.5790  -14.4620    2.6780 C   0  0  0  0  0  0  0  0  0  0  0
   18.7770  -13.1550    2.9650 O   0  0  0  0  0  0  0  0  0  0  0
   19.4070  -15.2530    3.1810 O   0  0  0  0  0  0  0  0  0  0  0
   18.0720  -17.2320    2.0170 N   0  0  0  0  0  0  0  0  0  0  0
   17.9540  -18.5650    1.8040 C   0  0  0  0  0  0  0  0  0  0  0
   17.2370  -19.3620    2.7160 C   0  0  0  0  0  0  0  0  0  0  0
   17.1270  -20.7470    2.5070 C   0  0  0  0  0  0  0  0  0  0  0
   17.7370  -21.3510    1.3900 C   0  0  0  0  0  0  0  0  0  0  0
   18.4610  -20.5500    0.4830 C   0  0  0  0  0  0  0  0  0  0  0
   18.5710  -19.1640    0.6900 C   0  0  0  0  0  0  0  0  0  0  0
   17.6100  -22.8030    1.1880 C   0  0  0  0  0  0  0  0  0  0  0
   14.9280  -13.4920    0.1730 H   0  0  0  0  0  0  0  0  0  0  0
   14.5030  -15.8120   -0.3830 H   0  0  0  0  0  0  0  0  0  0  0
   15.9400  -17.5350    0.4610 H   0  0  0  0  0  0  0  0  0  0  0
   16.7860  -12.9050    1.5670 H   0  0  0  0  0  0  0  0  0  0  0
   19.5540  -12.9930    3.5390 H   0  0  0  0  0  0  0  0  0  0  0
   18.8130  -16.9570    2.5760 H   0  0  0  0  0  0  0  0  0  0  0
   16.7940  -18.9350    3.5300 H   0  0  0  0  0  0  0  0  0  0  0
   16.6020  -21.3170    3.1720 H   0  0  0  0  0  0  0  0  0  0  0
   18.9100  -20.9750   -0.3290 H   0  0  0  0  0  0  0  0  0  0  0
   19.1000  -18.5940    0.0290 H   0  0  0  0  0  0  0  0  0  0  0
   18.1330  -23.1230    0.2860 H   0  0  0  0  0  0  0  0  0  0  0
   18.0340  -23.3290    2.0440 H   0  0  0  0  0  0  0  0  0  0  0
   16.5560  -23.0670    1.0930 H   0  0  0  0  0  0  0  0  0  0  0
  1  2  2  0  0  0  0
  1  6  1  0  0  0  0
  1 18  1  0  0  0  0
  2  3  1  0  0  0  0
  2 19  1  0  0  0  0
  3  4  2  0  0  0  0
  3 20  1  0  0  0  0
  4  5  1  0  0  0  0
  4 10  1  0  0  0  0
  5  6  2  0  0  0  0
  5  7  1  0  0  0  0
  6 21  1  0  0  0  0
  7  8  1  0  0  0  0
  7  9  2  0  0  0  0
  8 22  1  0  0  0  0
 10 11  1  0  0  0  0
 10 23  1  0  0  0  0
 11 12  2  0  0  0  0
 11 16  1  0  0  0  0
 12 13  1  0  0  0  0
 12 24  1  0  0  0  0
 13 14  2  0  0  0  0
 13 25  1  0  0  0  0
 14 15  1  0  0  0  0
 14 17  1  0  0  0  0
 15 16  2  0  0  0  0
 15 26  1  0  0  0  0
 16 27  1  0  0  0  0
 17 28  1  0  0  0  0
 17 29  1  0  0  0  0
 17 30  1  0  0  0  0
M  END
> <From>
www.bindingDB.org

> <BindingDB Reactant_set_id>
50940526

> <Ligand InChI>
InChI=1S/C14H13NO2/c1-10-6-8-11(9-7-10)15-13-5-3-2-4-12(13)14(16)17/h2-9,15H,1H3,(H,16,17)

> <Ligand InChI Key>
DEFSEYPSVLNHBM-UHFFFAOYSA-N

> <BindingDB MonomerID>
50385717

> <BindingDB Ligand Name>
CHEMBL2043304

> <Target Name Assigned by Curator or DataSource>
Aldo-keto reductase family 1 member C2

> <Target Source Organism According to Curator or DataSource>
Homo sapiens

> <Ki (nM)>


> <IC50 (nM)>
 1460

> <Kd (nM)>


> <EC50 (nM)>


> <kon (M-1-s-1)>


> <koff (s-1)>


> <pH>


> <Temp C>


> <Curation/DataSource>
ChEMBL

> <Article DOI>
10.1021/jm201547v

> <PMID>
22263837

> <PubChem AID>


> <Patent Number>


> <Authors>
Adeniji, AO; Twenter, BM; Byrns, MC; Jin, Y; Chen, M; Winkler, JD; Penning, TM

> <Institution>
University of Pennsylvania

> <Link to Ligand in BindingDB>
http://www.bindingdb.org/bind/chemsearch/marvin/MolStructure.jsp?monomerid=50385717

> <Link to Ligand-Target Pair in BindingDB>
http://www.bindingdb.org/jsp/dbsearch/PrimarySearch_ki.jsp?energyterm=kJ/mole&tag=pol&polymerid=3022&target=Aldo-keto+reductase+family+1+member+C2&column=ki&startPg=0&Increment=50&submit=Search

> <Link to Ligand-Target Pair in BindingDB>
http://www.bindingdb.org/jsp/dbsearch/PrimarySearch_ki.jsp?energyterm=kJ/mole&tag=r21&monomerid=50385717&enzyme=Aldo-keto+reductase+family+1+member+C2&column=ki&startPg=0&Increment=50&submit=Search

> <Ligand HET ID in PDB>


> <PDB ID(s) for Ligand-Target Complex>


> <PubChem CID>
152155

> <PubChem SID>
160864800

> <ChEBI ID of Ligand>


> <ChEMBL ID of Ligand>
CHEMBL2043304

> <DrugBank ID of Ligand>


> <IUPHAR_GRAC ID of Ligand>


> <KEGG ID of Ligand>


> <ZINC ID of Ligand>
ZINC05160660

> <Number of Protein Chains in Target (>1 implies a multichain complex)>
1

> <BindingDB Target Chain Sequence>
MDSKYQCVKLNDGHFMPVLGFGTYAPAEVPKSKALEAVKLAIEAGFHHIDSAHVYNNEEQVGLAIRSKIADGSVKREDIFYTSKLWSNSHRPELVRPALERSLKNLQLDYVDLYLIHFPVSVKPGEEVIPKDENGKILFDTVDLCATWEAMEKCKDAGLAKSIGVSNFNHRLLEMILNKPGLKYKPVCNQVECHPYFNQRKLLDFCKSKDIVLVAYSALGSHREEPWVDPNSPVLLEDPVLCALAKKHKRTPALIALRYQLQRGVVVLAKSYNEQRIRQNVQVFEFQLTSEEMKAIDGLNRNVRYLTLDIFAGPPNYPFSDEY

> <PDB ID(s) of Target Chain>
1IHI,1J96,1XJB,2HDJ,4JQ1,4JQ2,4JQ3,4JQ4,4JQA,4JTQ,4JTR,4L1W,4XO6,4XO7,6F2U

> <UniProt (SwissProt) Recommended Name of Target Chain>
Aldo-keto reductase family 1 member C2

> <UniProt (SwissProt) Entry Name of Target Chain>
AK1C2_HUMAN

> <UniProt (SwissProt) Primary ID of Target Chain>
P52895

> <UniProt (SwissProt) Secondary ID(s) of Target Chain>
A8K2N9,B4DKR9,Q14133,Q5SR16,Q7M4N1,Q96A71

> <UniProt (SwissProt) Alternative ID(s) of Target Chain>


> <UniProt (TrEMBL) Submitted Name of Target Chain>


> <UniProt (TrEMBL) Entry Name of Target Chain>


> <UniProt (TrEMBL) Primary ID of Target Chain>


> <UniProt (TrEMBL) Secondary ID(s) of Target Chain>


> <UniProt (TrEMBL) Alternative ID(s) of Target Chain>


$$$$
BindingDB_50385718_mol_1

Vconf v2.0 Academic SN VC001-00000579
 30 31  0  0  0  0  0  0  0  0999 V2000
    1.6900  -21.2040    1.0310 C   0  0  0  0  0  0  0  0  0  0  0
    1.7700  -22.2620    0.1190 C   0  0  0  0  0  0  0  0  0  0  0
    2.8480  -23.1560    0.1810 C   0  0  0  0  0  0  0  0  0  0  0
    3.8810  -23.0050    1.1370 C   0  0  0  0  0  0  0  0  0  0  0
    3.7810  -21.9430    2.0860 C   0  0  0  0  0  0  0  0  0  0  0
    2.6830  -21.0530    2.0090 C   0  0  0  0  0  0  0  0  0  0  0
    4.7400  -21.7070    3.1090 C   0  0  0  0  0  0  0  0  0  0  0
    4.6050  -20.6830    3.9830 O   0  0  0  0  0  0  0  0  0  0  0
    5.7600  -22.4120    3.2690 O   0  0  0  0  0  0  0  0  0  0  0
    4.9360  -23.8780    1.2320 N   0  0  0  0  0  0  0  0  0  0  0
    5.4580  -24.8020    0.3700 C   0  0  0  0  0  0  0  0  0  0  0
    6.3960  -25.6860    0.9400 C   0  0  0  0  0  0  0  0  0  0  0
    7.0220  -26.6790    0.1680 C   0  0  0  0  0  0  0  0  0  0  0
    6.7420  -26.8030   -1.2090 C   0  0  0  0  0  0  0  0  0  0  0
    5.8290  -25.8980   -1.7900 C   0  0  0  0  0  0  0  0  0  0  0
    5.2040  -24.9070   -1.0150 C   0  0  0  0  0  0  0  0  0  0  0
    7.3710  -27.8020   -1.9830 C   0  0  0  0  0  0  0  0  0  0  0
    8.2510  -28.6690   -1.4340 O   0  0  0  0  0  0  0  0  0  0  0
    7.1440  -27.9280   -3.2070 O   0  0  0  0  0  0  0  0  0  0  0
    0.9060  -20.5520    0.9920 H   0  0  0  0  0  0  0  0  0  0  0
    1.0370  -22.3910   -0.5790 H   0  0  0  0  0  0  0  0  0  0  0
    2.8370  -23.9480   -0.4550 H   0  0  0  0  0  0  0  0  0  0  0
    2.5940  -20.2780    2.6690 H   0  0  0  0  0  0  0  0  0  0  0
    5.3340  -20.6260    4.6340 H   0  0  0  0  0  0  0  0  0  0  0
    5.4130  -23.8320    2.0730 H   0  0  0  0  0  0  0  0  0  0  0
    6.6200  -25.6170    1.9340 H   0  0  0  0  0  0  0  0  0  0  0
    7.6860  -27.3090    0.6200 H   0  0  0  0  0  0  0  0  0  0  0
    5.6210  -25.9470   -2.7900 H   0  0  0  0  0  0  0  0  0  0  0
    4.5980  -24.2410   -1.4890 H   0  0  0  0  0  0  0  0  0  0  0
    8.6190  -29.3110   -2.0750 H   0  0  0  0  0  0  0  0  0  0  0
  1  2  2  0  0  0  0
  1  6  1  0  0  0  0
  1 20  1  0  0  0  0
  2  3  1  0  0  0  0
  2 21  1  0  0  0  0
  3  4  2  0  0  0  0
  3 22  1  0  0  0  0
  4  5  1  0  0  0  0
  4 10  1  0  0  0  0
  5  6  2  0  0  0  0
  5  7  1  0  0  0  0
  6 23  1  0  0  0  0
  7  8  1  0  0  0  0
  7  9  2  0  0  0  0
  8 24  1  0  0  0  0
 10 11  1  0  0  0  0
 10 25  1  0  0  0  0
 11 12  2  0  0  0  0
 11 16  1  0  0  0  0
 12 13  1  0  0  0  0
 12 26  1  0  0  0  0
 13 14  2  0  0  0  0
 13 27  1  0  0  0  0
 14 15  1  0  0  0  0
 14 17  1  0  0  0  0
 15 16  2  0  0  0  0
 15 28  1  0  0  0  0
 16 29  1  0  0  0  0
 17 18  1  0  0  0  0
 17 19  2  0  0  0  0
 18 30  1  0  0  0  0
M  END
> <From>
www.bindingDB.org

> <BindingDB Reactant_set_id>
50940528

> <Ligand InChI>
InChI=1S/C14H11NO4/c16-13(17)9-5-7-10(8-6-9)15-12-4-2-1-3-11(12)14(18)19/h1-8,15H,(H,16,17)(H,18,19)

> <Ligand InChI Key>
GWHPRNJPEJWLMA-UHFFFAOYSA-N

> <BindingDB MonomerID>
50385718

> <BindingDB Ligand Name>
CHEMBL2043306

> <Target Name Assigned by Curator or DataSource>
Aldo-keto reductase family 1 member C2

> <Target Source Organism According to Curator or DataSource>
Homo sapiens

> <Ki (nM)>


> <IC50 (nM)>
 3260

> <Kd (nM)>


> <EC50 (nM)>


> <kon (M-1-s-1)>


> <koff (s-1)>


> <pH>


> <Temp C>


> <Curation/DataSource>
ChEMBL

> <Article DOI>
10.1021/jm201547v

> <PMID>
22263837

> <PubChem AID>


> <Patent Number>


> <Authors>
Adeniji, AO; Twenter, BM; Byrns, MC; Jin, Y; Chen, M; Winkler, JD; Penning, TM

> <Institution>
University of Pennsylvania

> <Link to Ligand in BindingDB>
http://www.bindingdb.org/bind/chemsearch/marvin/MolStructure.jsp?monomerid=50385718

> <Link to Ligand-Target Pair in BindingDB>
http://www.bindingdb.org/jsp/dbsearch/PrimarySearch_ki.jsp?energyterm=kJ/mole&tag=pol&polymerid=3022&target=Aldo-keto+reductase+family+1+member+C2&column=ki&startPg=0&Increment=50&submit=Search

> <Link to Ligand-Target Pair in BindingDB>
http://www.bindingdb.org/jsp/dbsearch/PrimarySearch_ki.jsp?energyterm=kJ/mole&tag=r21&monomerid=50385718&enzyme=Aldo-keto+reductase+family+1+member+C2&column=ki&startPg=0&Increment=50&submit=Search

> <Ligand HET ID in PDB>


> <PDB ID(s) for Ligand-Target Complex>


> <PubChem CID>
205082

> <PubChem SID>
160864801

> <ChEBI ID of Ligand>


> <ChEMBL ID of Ligand>
CHEMBL2043306

> <DrugBank ID of Ligand>


> <IUPHAR_GRAC ID of Ligand>


> <KEGG ID of Ligand>


> <ZINC ID of Ligand>
ZINC03631865

> <Number of Protein Chains in Target (>1 implies a multichain complex)>
1

> <BindingDB Target Chain Sequence>
MDSKYQCVKLNDGHFMPVLGFGTYAPAEVPKSKALEAVKLAIEAGFHHIDSAHVYNNEEQVGLAIRSKIADGSVKREDIFYTSKLWSNSHRPELVRPALERSLKNLQLDYVDLYLIHFPVSVKPGEEVIPKDENGKILFDTVDLCATWEAMEKCKDAGLAKSIGVSNFNHRLLEMILNKPGLKYKPVCNQVECHPYFNQRKLLDFCKSKDIVLVAYSALGSHREEPWVDPNSPVLLEDPVLCALAKKHKRTPALIALRYQLQRGVVVLAKSYNEQRIRQNVQVFEFQLTSEEMKAIDGLNRNVRYLTLDIFAGPPNYPFSDEY

> <PDB ID(s) of Target Chain>
1IHI,1J96,1XJB,2HDJ,4JQ1,4JQ2,4JQ3,4JQ4,4JQA,4JTQ,4JTR,4L1W,4XO6,4XO7,6F2U

> <UniProt (SwissProt) Recommended Name of Target Chain>
Aldo-keto reductase family 1 member C2

> <UniProt (SwissProt) Entry Name of Target Chain>
AK1C2_HUMAN

> <UniProt (SwissProt) Primary ID of Target Chain>
P52895

> <UniProt (SwissProt) Secondary ID(s) of Target Chain>
A8K2N9,B4DKR9,Q14133,Q5SR16,Q7M4N1,Q96A71

> <UniProt (SwissProt) Alternative ID(s) of Target Chain>


> <UniProt (TrEMBL) Submitted Name of Target Chain>


> <UniProt (TrEMBL) Entry Name of Target Chain>


> <UniProt (TrEMBL) Primary ID of Target Chain>


> <UniProt (TrEMBL) Secondary ID(s) of Target Chain>


> <UniProt (TrEMBL) Alternative ID(s) of Target Chain>


$$$$
BindingDB_50385720_mol_1

Vconf v2.0 Academic SN VC001-00000579
 35 36  0  0  0  0  0  0  0  0999 V2000
   12.4850  -20.6030    0.8660 C   0  0  0  0  0  0  0  0  0  0  0
   12.2500  -21.8470    0.2680 C   0  0  0  0  0  0  0  0  0  0  0
   13.1550  -22.8990    0.4680 C   0  0  0  0  0  0  0  0  0  0  0
   14.3110  -22.7310    1.2690 C   0  0  0  0  0  0  0  0  0  0  0
   14.5510  -21.4650    1.8770 C   0  0  0  0  0  0  0  0  0  0  0
   13.6250  -20.4170    1.6620 C   0  0  0  0  0  0  0  0  0  0  0
   15.6800  -21.1910    2.6950 C   0  0  0  0  0  0  0  0  0  0  0
   15.8680  -19.9740    3.2540 O   0  0  0  0  0  0  0  0  0  0  0
   16.5610  -22.0410    2.9500 O   0  0  0  0  0  0  0  0  0  0  0
   15.1900  -23.7630    1.4650 N   0  0  0  0  0  0  0  0  0  0  0
   15.0940  -25.0150    0.9560 C   0  0  0  0  0  0  0  0  0  0  0
   14.4870  -26.0350    1.7100 C   0  0  0  0  0  0  0  0  0  0  0
   14.3900  -27.3420    1.2000 C   0  0  0  0  0  0  0  0  0  0  0
   14.9180  -27.6200   -0.0780 C   0  0  0  0  0  0  0  0  0  0  0
   15.5360  -26.6130   -0.8410 C   0  0  0  0  0  0  0  0  0  0  0
   15.6210  -25.3070   -0.3140 C   0  0  0  0  0  0  0  0  0  0  0
   16.0230  -26.9720   -2.0660 O   0  0  0  0  0  0  0  0  0  0  0
   16.6900  -26.0480   -2.9300 C   0  0  0  0  0  0  0  0  0  0  0
   13.7790  -28.2730    1.9900 O   0  0  0  0  0  0  0  0  0  0  0
   13.5960  -29.6310    1.5790 C   0  0  0  0  0  0  0  0  0  0  0
   11.8290  -19.8350    0.7240 H   0  0  0  0  0  0  0  0  0  0  0
   11.4220  -21.9870   -0.3130 H   0  0  0  0  0  0  0  0  0  0  0
   12.9600  -23.7950    0.0220 H   0  0  0  0  0  0  0  0  0  0  0
   13.7710  -19.4990    2.0870 H   0  0  0  0  0  0  0  0  0  0  0
   16.6810  -19.9140    3.7970 H   0  0  0  0  0  0  0  0  0  0  0
   15.9590  -23.5930    2.0280 H   0  0  0  0  0  0  0  0  0  0  0
   14.1090  -25.8260    2.6350 H   0  0  0  0  0  0  0  0  0  0  0
   14.8570  -28.5640   -0.4600 H   0  0  0  0  0  0  0  0  0  0  0
   16.0660  -24.5650   -0.8550 H   0  0  0  0  0  0  0  0  0  0  0
   16.9840  -26.5690   -3.8410 H   0  0  0  0  0  0  0  0  0  0  0
   16.0220  -25.2260   -3.1940 H   0  0  0  0  0  0  0  0  0  0  0
   17.5840  -25.6540   -2.4440 H   0  0  0  0  0  0  0  0  0  0  0
   13.0810  -30.1720    2.3730 H   0  0  0  0  0  0  0  0  0  0  0
   12.9890  -29.6730    0.6730 H   0  0  0  0  0  0  0  0  0  0  0
   14.5610  -30.1050    1.3980 H   0  0  0  0  0  0  0  0  0  0  0
  1  2  2  0  0  0  0
  1  6  1  0  0  0  0
  1 21  1  0  0  0  0
  2  3  1  0  0  0  0
  2 22  1  0  0  0  0
  3  4  2  0  0  0  0
  3 23  1  0  0  0  0
  4  5  1  0  0  0  0
  4 10  1  0  0  0  0
  5  6  2  0  0  0  0
  5  7  1  0  0  0  0
  6 24  1  0  0  0  0
  7  8  1  0  0  0  0
  7  9  2  0  0  0  0
  8 25  1  0  0  0  0
 10 11  1  0  0  0  0
 10 26  1  0  0  0  0
 11 12  2  0  0  0  0
 11 16  1  0  0  0  0
 12 13  1  0  0  0  0
 12 27  1  0  0  0  0
 13 14  2  0  0  0  0
 13 19  1  0  0  0  0
 14 15  1  0  0  0  0
 14 28  1  0  0  0  0
 15 16  2  0  0  0  0
 15 17  1  0  0  0  0
 16 29  1  0  0  0  0
 17 18  1  0  0  0  0
 18 30  1  0  0  0  0
 18 31  1  0  0  0  0
 18 32  1  0  0  0  0
 19 20  1  0  0  0  0
 20 33  1  0  0  0  0
 20 34  1  0  0  0  0
 20 35  1  0  0  0  0
M  END
> <From>
www.bindingDB.org

> <BindingDB Reactant_set_id>
50940530

> <Ligand InChI>
InChI=1S/C15H15NO4/c1-19-11-7-10(8-12(9-11)20-2)16-14-6-4-3-5-13(14)15(17)18/h3-9,16H,1-2H3,(H,17,18)

> <Ligand InChI Key>
OFXPEUIIMJGNFG-UHFFFAOYSA-N

> <BindingDB MonomerID>
50385720

> <BindingDB Ligand Name>
CHEMBL2043308

> <Target Name Assigned by Curator or DataSource>
Aldo-keto reductase family 1 member C2

> <Target Source Organism According to Curator or DataSource>
Homo sapiens

> <Ki (nM)>


> <IC50 (nM)>
 3400

> <Kd (nM)>


> <EC50 (nM)>


> <kon (M-1-s-1)>


> <koff (s-1)>


> <pH>


> <Temp C>


> <Curation/DataSource>
ChEMBL

> <Article DOI>
10.1021/jm201547v

> <PMID>
22263837

> <PubChem AID>


> <Patent Number>


> <Authors>
Adeniji, AO; Twenter, BM; Byrns, MC; Jin, Y; Chen, M; Winkler, JD; Penning, TM

> <Institution>
University of Pennsylvania

> <Link to Ligand in BindingDB>
http://www.bindingdb.org/bind/chemsearch/marvin/MolStructure.jsp?monomerid=50385720

> <Link to Ligand-Target Pair in BindingDB>
http://www.bindingdb.org/jsp/dbsearch/PrimarySearch_ki.jsp?energyterm=kJ/mole&tag=pol&polymerid=3022&target=Aldo-keto+reductase+family+1+member+C2&column=ki&startPg=0&Increment=50&submit=Search

> <Link to Ligand-Target Pair in BindingDB>
http://www.bindingdb.org/jsp/dbsearch/PrimarySearch_ki.jsp?energyterm=kJ/mole&tag=r21&monomerid=50385720&enzyme=Aldo-keto+reductase+family+1+member+C2&column=ki&startPg=0&Increment=50&submit=Search

> <Ligand HET ID in PDB>


> <PDB ID(s) for Ligand-Target Complex>


> <PubChem CID>
14380427

> <PubChem SID>
160864803

> <ChEBI ID of Ligand>


> <ChEMBL ID of Ligand>
CHEMBL2043308

> <DrugBank ID of Ligand>


> <IUPHAR_GRAC ID of Ligand>


> <KEGG ID of Ligand>


> <ZINC ID of Ligand>
ZINC50912973

> <Number of Protein Chains in Target (>1 implies a multichain complex)>
1

> <BindingDB Target Chain Sequence>
MDSKYQCVKLNDGHFMPVLGFGTYAPAEVPKSKALEAVKLAIEAGFHHIDSAHVYNNEEQVGLAIRSKIADGSVKREDIFYTSKLWSNSHRPELVRPALERSLKNLQLDYVDLYLIHFPVSVKPGEEVIPKDENGKILFDTVDLCATWEAMEKCKDAGLAKSIGVSNFNHRLLEMILNKPGLKYKPVCNQVECHPYFNQRKLLDFCKSKDIVLVAYSALGSHREEPWVDPNSPVLLEDPVLCALAKKHKRTPALIALRYQLQRGVVVLAKSYNEQRIRQNVQVFEFQLTSEEMKAIDGLNRNVRYLTLDIFAGPPNYPFSDEY

> <PDB ID(s) of Target Chain>
1IHI,1J96,1XJB,2HDJ,4JQ1,4JQ2,4JQ3,4JQ4,4JQA,4JTQ,4JTR,4L1W,4XO6,4XO7,6F2U

> <UniProt (SwissProt) Recommended Name of Target Chain>
Aldo-keto reductase family 1 member C2

> <UniProt (SwissProt) Entry Name of Target Chain>
AK1C2_HUMAN

> <UniProt (SwissProt) Primary ID of Target Chain>
P52895

> <UniProt (SwissProt) Secondary ID(s) of Target Chain>
A8K2N9,B4DKR9,Q14133,Q5SR16,Q7M4N1,Q96A71

> <UniProt (SwissProt) Alternative ID(s) of Target Chain>


> <UniProt (TrEMBL) Submitted Name of Target Chain>


> <UniProt (TrEMBL) Entry Name of Target Chain>


> <UniProt (TrEMBL) Primary ID of Target Chain>


> <UniProt (TrEMBL) Secondary ID(s) of Target Chain>


> <UniProt (TrEMBL) Alternative ID(s) of Target Chain>


$$$$
BindingDB_50385721_mol_1

Vconf v2.0 Academic SN VC001-00000579
 33 34  0  0  0  0  0  0  0  0999 V2000
   17.3090  -20.8760    0.5420 C   0  0  0  0  0  0  0  0  0  0  0
   17.0720  -22.2140    0.2060 C   0  0  0  0  0  0  0  0  0  0  0
   17.9350  -23.2130    0.6780 C   0  0  0  0  0  0  0  0  0  0  0
   19.0500  -22.8980    1.4920 C   0  0  0  0  0  0  0  0  0  0  0
   19.2920  -21.5350    1.8330 C   0  0  0  0  0  0  0  0  0  0  0
   18.4080  -20.5430    1.3470 C   0  0  0  0  0  0  0  0  0  0  0
   20.3800  -21.1120    2.6430 C   0  0  0  0  0  0  0  0  0  0  0
   20.5720  -19.8070    2.9420 O   0  0  0  0  0  0  0  0  0  0  0
   21.2200  -21.9020    3.1250 O   0  0  0  0  0  0  0  0  0  0  0
   19.8900  -23.8780    1.9500 N   0  0  0  0  0  0  0  0  0  0  0
   19.7870  -25.2070    1.7120 C   0  0  0  0  0  0  0  0  0  0  0
   19.0260  -26.0230    2.5690 C   0  0  0  0  0  0  0  0  0  0  0
   18.9230  -27.4070    2.3330 C   0  0  0  0  0  0  0  0  0  0  0
   19.5950  -27.9700    1.2300 C   0  0  0  0  0  0  0  0  0  0  0
   20.3660  -27.1650    0.3690 C   0  0  0  0  0  0  0  0  0  0  0
   20.4600  -25.7820    0.6180 C   0  0  0  0  0  0  0  0  0  0  0
   21.0600  -27.7780   -0.7740 C   0  0  0  0  0  0  0  0  0  0  0
   18.1180  -28.2410    3.2390 C   0  0  0  0  0  0  0  0  0  0  0
   16.6840  -20.1450    0.2020 H   0  0  0  0  0  0  0  0  0  0  0
   16.2740  -22.4610   -0.3800 H   0  0  0  0  0  0  0  0  0  0  0
   17.7410  -24.1810    0.4190 H   0  0  0  0  0  0  0  0  0  0  0
   18.5560  -19.5580    1.5760 H   0  0  0  0  0  0  0  0  0  0  0
   21.3560  -19.6460    3.5070 H   0  0  0  0  0  0  0  0  0  0  0
   20.6390  -23.6030    2.4990 H   0  0  0  0  0  0  0  0  0  0  0
   18.5430  -25.6060    3.3670 H   0  0  0  0  0  0  0  0  0  0  0
   19.5240  -28.9730    1.0520 H   0  0  0  0  0  0  0  0  0  0  0
   21.0170  -25.1900    0.0010 H   0  0  0  0  0  0  0  0  0  0  0
   21.6150  -27.0320   -1.3450 H   0  0  0  0  0  0  0  0  0  0  0
   21.7600  -28.5340   -0.4140 H   0  0  0  0  0  0  0  0  0  0  0
   20.3310  -28.2510   -1.4330 H   0  0  0  0  0  0  0  0  0  0  0
   18.1300  -29.2870    2.9280 H   0  0  0  0  0  0  0  0  0  0  0
   18.5200  -28.1730    4.2510 H   0  0  0  0  0  0  0  0  0  0  0
   17.0860  -27.8880    3.2410 H   0  0  0  0  0  0  0  0  0  0  0
  1  2  2  0  0  0  0
  1  6  1  0  0  0  0
  1 19  1  0  0  0  0
  2  3  1  0  0  0  0
  2 20  1  0  0  0  0
  3  4  2  0  0  0  0
  3 21  1  0  0  0  0
  4  5  1  0  0  0  0
  4 10  1  0  0  0  0
  5  6  2  0  0  0  0
  5  7  1  0  0  0  0
  6 22  1  0  0  0  0
  7  8  1  0  0  0  0
  7  9  2  0  0  0  0
  8 23  1  0  0  0  0
 10 11  1  0  0  0  0
 10 24  1  0  0  0  0
 11 12  2  0  0  0  0
 11 16  1  0  0  0  0
 12 13  1  0  0  0  0
 12 25  1  0  0  0  0
 13 14  2  0  0  0  0
 13 18  1  0  0  0  0
 14 15  1  0  0  0  0
 14 26  1  0  0  0  0
 15 16  2  0  0  0  0
 15 17  1  0  0  0  0
 16 27  1  0  0  0  0
 17 28  1  0  0  0  0
 17 29  1  0  0  0  0
 17 30  1  0  0  0  0
 18 31  1  0  0  0  0
 18 32  1  0  0  0  0
 18 33  1  0  0  0  0
M  END
> <From>
www.bindingDB.org

> <BindingDB Reactant_set_id>
50940531

> <Ligand InChI>
InChI=1S/C15H15NO2/c1-10-7-11(2)9-12(8-10)16-14-6-4-3-5-13(14)15(17)18/h3-9,16H,1-2H3,(H,17,18)

> <Ligand InChI Key>
LQAICXZTMFLLTO-UHFFFAOYSA-N

> <BindingDB MonomerID>
50385721

> <BindingDB Ligand Name>
CHEMBL2043309

> <Target Name Assigned by Curator or DataSource>
Aldo-keto reductase family 1 member C2

> <Target Source Organism According to Curator or DataSource>
Homo sapiens

> <Ki (nM)>


> <IC50 (nM)>
 2360

> <Kd (nM)>


> <EC50 (nM)>


> <kon (M-1-s-1)>


> <koff (s-1)>


> <pH>


> <Temp C>


> <Curation/DataSource>
ChEMBL

> <Article DOI>
10.1021/jm201547v

> <PMID>
22263837

> <PubChem AID>


> <Patent Number>


> <Authors>
Adeniji, AO; Twenter, BM; Byrns, MC; Jin, Y; Chen, M; Winkler, JD; Penning, TM

> <Institution>
University of Pennsylvania

> <Link to Ligand in BindingDB>
http://www.bindingdb.org/bind/chemsearch/marvin/MolStructure.jsp?monomerid=50385721

> <Link to Ligand-Target Pair in BindingDB>
http://www.bindingdb.org/jsp/dbsearch/PrimarySearch_ki.jsp?energyterm=kJ/mole&tag=pol&polymerid=3022&target=Aldo-keto+reductase+family+1+member+C2&column=ki&startPg=0&Increment=50&submit=Search

> <Link to Ligand-Target Pair in BindingDB>
http://www.bindingdb.org/jsp/dbsearch/PrimarySearch_ki.jsp?energyterm=kJ/mole&tag=r21&monomerid=50385721&enzyme=Aldo-keto+reductase+family+1+member+C2&column=ki&startPg=0&Increment=50&submit=Search

> <Ligand HET ID in PDB>


> <PDB ID(s) for Ligand-Target Complex>


> <PubChem CID>
23456902

> <PubChem SID>
160864804

> <ChEBI ID of Ligand>


> <ChEMBL ID of Ligand>
CHEMBL2043309

> <DrugBank ID of Ligand>


> <IUPHAR_GRAC ID of Ligand>


> <KEGG ID of Ligand>


> <ZINC ID of Ligand>
ZINC84705610

> <Number of Protein Chains in Target (>1 implies a multichain complex)>
1

> <BindingDB Target Chain Sequence>
MDSKYQCVKLNDGHFMPVLGFGTYAPAEVPKSKALEAVKLAIEAGFHHIDSAHVYNNEEQVGLAIRSKIADGSVKREDIFYTSKLWSNSHRPELVRPALERSLKNLQLDYVDLYLIHFPVSVKPGEEVIPKDENGKILFDTVDLCATWEAMEKCKDAGLAKSIGVSNFNHRLLEMILNKPGLKYKPVCNQVECHPYFNQRKLLDFCKSKDIVLVAYSALGSHREEPWVDPNSPVLLEDPVLCALAKKHKRTPALIALRYQLQRGVVVLAKSYNEQRIRQNVQVFEFQLTSEEMKAIDGLNRNVRYLTLDIFAGPPNYPFSDEY

> <PDB ID(s) of Target Chain>
1IHI,1J96,1XJB,2HDJ,4JQ1,4JQ2,4JQ3,4JQ4,4JQA,4JTQ,4JTR,4L1W,4XO6,4XO7,6F2U

> <UniProt (SwissProt) Recommended Name of Target Chain>
Aldo-keto reductase family 1 member C2

> <UniProt (SwissProt) Entry Name of Target Chain>
AK1C2_HUMAN

> <UniProt (SwissProt) Primary ID of Target Chain>
P52895

> <UniProt (SwissProt) Secondary ID(s) of Target Chain>
A8K2N9,B4DKR9,Q14133,Q5SR16,Q7M4N1,Q96A71

> <UniProt (SwissProt) Alternative ID(s) of Target Chain>


> <UniProt (TrEMBL) Submitted Name of Target Chain>


> <UniProt (TrEMBL) Entry Name of Target Chain>


> <UniProt (TrEMBL) Primary ID of Target Chain>


> <UniProt (TrEMBL) Secondary ID(s) of Target Chain>


> <UniProt (TrEMBL) Alternative ID(s) of Target Chain>


$$$$
BindingDB_50385722_mol_1

Vconf v2.0 Academic SN VC001-00000579
 34 35  0  0  0  0  0  0  0  0999 V2000
    1.6270   -1.0250    0.7300 C   0  0  0  0  0  0  0  0  0  0  0
    1.7200   -2.1790   -0.0600 C   0  0  0  0  0  0  0  0  0  0  0
    2.7500   -3.1020    0.2040 C   0  0  0  0  0  0  0  0  0  0  0
    3.6910   -2.8910    1.2410 C   0  0  0  0  0  0  0  0  0  0  0
    3.5830   -1.7180    2.0420 C   0  0  0  0  0  0  0  0  0  0  0
    2.5440   -0.7990    1.7660 C   0  0  0  0  0  0  0  0  0  0  0
    4.4690   -1.4120    3.1100 C   0  0  0  0  0  0  0  0  0  0  0
    4.3300   -0.2830    3.8410 O   0  0  0  0  0  0  0  0  0  0  0
    5.4210   -2.1530    3.4400 O   0  0  0  0  0  0  0  0  0  0  0
    4.6880   -3.7990    1.4900 N   0  0  0  0  0  0  0  0  0  0  0
    4.9490   -4.9430    0.8100 C   0  0  0  0  0  0  0  0  0  0  0
    4.8040   -6.1780    1.4660 C   0  0  0  0  0  0  0  0  0  0  0
    5.0910   -7.3730    0.7890 C   0  0  0  0  0  0  0  0  0  0  0
    5.5350   -7.3360   -0.5430 C   0  0  0  0  0  0  0  0  0  0  0
    5.7030   -6.1080   -1.2210 C   0  0  0  0  0  0  0  0  0  0  0
    5.4100   -4.9140   -0.5220 C   0  0  0  0  0  0  0  0  0  0  0
    6.1770   -6.1080   -2.6310 C   0  0  0  0  0  0  0  0  0  0  0
    6.2970   -4.8540   -3.1830 F   0  0  0  0  0  0  0  0  0  0  0
    7.4140   -6.7030   -2.7130 F   0  0  0  0  0  0  0  0  0  0  0
    5.3030   -6.8120   -3.4230 F   0  0  0  0  0  0  0  0  0  0  0
    0.7900   -2.3360   -1.0480 O   0  0  0  0  0  0  0  0  0  0  0
    0.7630   -3.4800   -1.9060 C   0  0  0  0  0  0  0  0  0  0  0
    0.8870   -0.3460    0.5520 H   0  0  0  0  0  0  0  0  0  0  0
    2.8070   -3.9430   -0.3680 H   0  0  0  0  0  0  0  0  0  0  0
    2.4430    0.0520    2.3220 H   0  0  0  0  0  0  0  0  0  0  0
    5.0050   -0.1870    4.5440 H   0  0  0  0  0  0  0  0  0  0  0
    5.2620   -3.6240    2.2500 H   0  0  0  0  0  0  0  0  0  0  0
    4.4840   -6.2090    2.4350 H   0  0  0  0  0  0  0  0  0  0  0
    4.9800   -8.2690    1.2650 H   0  0  0  0  0  0  0  0  0  0  0
    5.7400   -8.2130   -1.0240 H   0  0  0  0  0  0  0  0  0  0  0
    5.5300   -4.0120   -0.9830 H   0  0  0  0  0  0  0  0  0  0  0
   -0.0650   -3.3750   -2.6070 H   0  0  0  0  0  0  0  0  0  0  0
    1.6950   -3.5520   -2.4690 H   0  0  0  0  0  0  0  0  0  0  0
    0.6160   -4.3890   -1.3200 H   0  0  0  0  0  0  0  0  0  0  0
  1  2  2  0  0  0  0
  1  6  1  0  0  0  0
  1 23  1  0  0  0  0
  2  3  1  0  0  0  0
  2 21  1  0  0  0  0
  3  4  2  0  0  0  0
  3 24  1  0  0  0  0
  4  5  1  0  0  0  0
  4 10  1  0  0  0  0
  5  6  2  0  0  0  0
  5  7  1  0  0  0  0
  6 25  1  0  0  0  0
  7  8  1  0  0  0  0
  7  9  2  0  0  0  0
  8 26  1  0  0  0  0
 10 11  1  0  0  0  0
 10 27  1  0  0  0  0
 11 12  2  0  0  0  0
 11 16  1  0  0  0  0
 12 13  1  0  0  0  0
 12 28  1  0  0  0  0
 13 14  2  0  0  0  0
 13 29  1  0  0  0  0
 14 15  1  0  0  0  0
 14 30  1  0  0  0  0
 15 16  2  0  0  0  0
 15 17  1  0  0  0  0
 16 31  1  0  0  0  0
 17 18  1  0  0  0  0
 17 19  1  0  0  0  0
 17 20  1  0  0  0  0
 21 22  1  0  0  0  0
 22 32  1  0  0  0  0
 22 33  1  0  0  0  0
 22 34  1  0  0  0  0
M  END
> <From>
www.bindingDB.org

> <BindingDB Reactant_set_id>
50940532

> <Ligand InChI>
InChI=1S/C15H12F3NO3/c1-22-11-5-6-12(14(20)21)13(8-11)19-10-4-2-3-9(7-10)15(16,17)18/h2-8,19H,1H3,(H,20,21)

> <Ligand InChI Key>
SYOGBWKYDIRMQJ-UHFFFAOYSA-N

> <BindingDB MonomerID>
50385722

> <BindingDB Ligand Name>
CHEMBL2043310

> <Target Name Assigned by Curator or DataSource>
Aldo-keto reductase family 1 member C2

> <Target Source Organism According to Curator or DataSource>
Homo sapiens

> <Ki (nM)>


> <IC50 (nM)>
 220

> <Kd (nM)>


> <EC50 (nM)>


> <kon (M-1-s-1)>


> <koff (s-1)>


> <pH>


> <Temp C>


> <Curation/DataSource>
ChEMBL

> <Article DOI>
10.1021/jm201547v

> <PMID>
22263837

> <PubChem AID>


> <Patent Number>


> <Authors>
Adeniji, AO; Twenter, BM; Byrns, MC; Jin, Y; Chen, M; Winkler, JD; Penning, TM

> <Institution>
University of Pennsylvania

> <Link to Ligand in BindingDB>
http://www.bindingdb.org/bind/chemsearch/marvin/MolStructure.jsp?monomerid=50385722

> <Link to Ligand-Target Pair in BindingDB>
http://www.bindingdb.org/jsp/dbsearch/PrimarySearch_ki.jsp?energyterm=kJ/mole&tag=pol&polymerid=3022&target=Aldo-keto+reductase+family+1+member+C2&column=ki&startPg=0&Increment=50&submit=Search

> <Link to Ligand-Target Pair in BindingDB>
http://www.bindingdb.org/jsp/dbsearch/PrimarySearch_ki.jsp?energyterm=kJ/mole&tag=r21&monomerid=50385722&enzyme=Aldo-keto+reductase+family+1+member+C2&column=ki&startPg=0&Increment=50&submit=Search

> <Ligand HET ID in PDB>


> <PDB ID(s) for Ligand-Target Complex>


> <PubChem CID>
70686144

> <PubChem SID>
160864805

> <ChEBI ID of Ligand>


> <ChEMBL ID of Ligand>
CHEMBL2043310

> <DrugBank ID of Ligand>


> <IUPHAR_GRAC ID of Ligand>


> <KEGG ID of Ligand>


> <ZINC ID of Ligand>
ZINC84729362

> <Number of Protein Chains in Target (>1 implies a multichain complex)>
1

> <BindingDB Target Chain Sequence>
MDSKYQCVKLNDGHFMPVLGFGTYAPAEVPKSKALEAVKLAIEAGFHHIDSAHVYNNEEQVGLAIRSKIADGSVKREDIFYTSKLWSNSHRPELVRPALERSLKNLQLDYVDLYLIHFPVSVKPGEEVIPKDENGKILFDTVDLCATWEAMEKCKDAGLAKSIGVSNFNHRLLEMILNKPGLKYKPVCNQVECHPYFNQRKLLDFCKSKDIVLVAYSALGSHREEPWVDPNSPVLLEDPVLCALAKKHKRTPALIALRYQLQRGVVVLAKSYNEQRIRQNVQVFEFQLTSEEMKAIDGLNRNVRYLTLDIFAGPPNYPFSDEY

> <PDB ID(s) of Target Chain>
1IHI,1J96,1XJB,2HDJ,4JQ1,4JQ2,4JQ3,4JQ4,4JQA,4JTQ,4JTR,4L1W,4XO6,4XO7,6F2U

> <UniProt (SwissProt) Recommended Name of Target Chain>
Aldo-keto reductase family 1 member C2

> <UniProt (SwissProt) Entry Name of Target Chain>
AK1C2_HUMAN

> <UniProt (SwissProt) Primary ID of Target Chain>
P52895

> <UniProt (SwissProt) Secondary ID(s) of Target Chain>
A8K2N9,B4DKR9,Q14133,Q5SR16,Q7M4N1,Q96A71

> <UniProt (SwissProt) Alternative ID(s) of Target Chain>


> <UniProt (TrEMBL) Submitted Name of Target Chain>


> <UniProt (TrEMBL) Entry Name of Target Chain>


> <UniProt (TrEMBL) Primary ID of Target Chain>


> <UniProt (TrEMBL) Secondary ID(s) of Target Chain>


> <UniProt (TrEMBL) Alternative ID(s) of Target Chain>


$$$$
BindingDB_50385723_mol_1

Vconf v2.0 Academic SN VC001-00000579
 31 32  0  0  0  0  0  0  0  0999 V2000
    8.6740   -1.0290    0.2790 C   0  0  0  0  0  0  0  0  0  0  0
    8.4760   -2.3460   -0.1550 C   0  0  0  0  0  0  0  0  0  0  0
    9.2120   -3.3800    0.4550 C   0  0  0  0  0  0  0  0  0  0  0
   10.1450   -3.1200    1.4890 C   0  0  0  0  0  0  0  0  0  0  0
   10.3340   -1.7780    1.9250 C   0  0  0  0  0  0  0  0  0  0  0
    9.5880   -0.7490    1.3050 C   0  0  0  0  0  0  0  0  0  0  0
   11.2400   -1.4080    2.9540 C   0  0  0  0  0  0  0  0  0  0  0
   11.3870   -0.1190    3.3370 O   0  0  0  0  0  0  0  0  0  0  0
   11.9520   -2.2330    3.5660 O   0  0  0  0  0  0  0  0  0  0  0
   10.8510   -4.1360    2.0780 N   0  0  0  0  0  0  0  0  0  0  0
   10.8110   -5.4560    1.7670 C   0  0  0  0  0  0  0  0  0  0  0
   11.3280   -5.9340    0.5460 C   0  0  0  0  0  0  0  0  0  0  0
   11.3000   -7.3090    0.2560 C   0  0  0  0  0  0  0  0  0  0  0
   10.7640   -8.2130    1.1880 C   0  0  0  0  0  0  0  0  0  0  0
   10.2580   -7.7430    2.4120 C   0  0  0  0  0  0  0  0  0  0  0
   10.2860   -6.3670    2.7030 C   0  0  0  0  0  0  0  0  0  0  0
    7.5660   -2.5450   -1.1530 O   0  0  0  0  0  0  0  0  0  0  0
    7.2650   -3.8430   -1.6720 C   0  0  0  0  0  0  0  0  0  0  0
    8.1490   -0.2680   -0.1530 H   0  0  0  0  0  0  0  0  0  0  0
    9.0590   -4.3370    0.1410 H   0  0  0  0  0  0  0  0  0  0  0
    9.7030    0.2240    1.5950 H   0  0  0  0  0  0  0  0  0  0  0
   12.0420    0.0040    4.0550 H   0  0  0  0  0  0  0  0  0  0  0
   11.4300   -3.8990    2.8170 H   0  0  0  0  0  0  0  0  0  0  0
   11.7250   -5.2820   -0.1320 H   0  0  0  0  0  0  0  0  0  0  0
   11.6720   -7.6510   -0.6310 H   0  0  0  0  0  0  0  0  0  0  0
   10.7440   -9.2110    0.9780 H   0  0  0  0  0  0  0  0  0  0  0
    9.8720   -8.4000    3.0910 H   0  0  0  0  0  0  0  0  0  0  0
    9.9210   -6.0320    3.5950 H   0  0  0  0  0  0  0  0  0  0  0
    6.5120   -3.7440   -2.4540 H   0  0  0  0  0  0  0  0  0  0  0
    8.1600   -4.2960   -2.1010 H   0  0  0  0  0  0  0  0  0  0  0
    6.8700   -4.4840   -0.8820 H   0  0  0  0  0  0  0  0  0  0  0
  1  2  2  0  0  0  0
  1  6  1  0  0  0  0
  1 19  1  0  0  0  0
  2  3  1  0  0  0  0
  2 17  1  0  0  0  0
  3  4  2  0  0  0  0
  3 20  1  0  0  0  0
  4  5  1  0  0  0  0
  4 10  1  0  0  0  0
  5  6  2  0  0  0  0
  5  7  1  0  0  0  0
  6 21  1  0  0  0  0
  7  8  1  0  0  0  0
  7  9  2  0  0  0  0
  8 22  1  0  0  0  0
 10 11  1  0  0  0  0
 10 23  1  0  0  0  0
 11 12  2  0  0  0  0
 11 16  1  0  0  0  0
 12 13  1  0  0  0  0
 12 24  1  0  0  0  0
 13 14  2  0  0  0  0
 13 25  1  0  0  0  0
 14 15  1  0  0  0  0
 14 26  1  0  0  0  0
 15 16  2  0  0  0  0
 15 27  1  0  0  0  0
 16 28  1  0  0  0  0
 17 18  1  0  0  0  0
 18 29  1  0  0  0  0
 18 30  1  0  0  0  0
 18 31  1  0  0  0  0
M  END
> <From>
www.bindingDB.org

> <BindingDB Reactant_set_id>
50940533

> <Ligand InChI>
InChI=1S/C14H13NO3/c1-18-11-7-8-12(14(16)17)13(9-11)15-10-5-3-2-4-6-10/h2-9,15H,1H3,(H,16,17)

> <Ligand InChI Key>
MFKNPBLMWQGRDT-UHFFFAOYSA-N

> <BindingDB MonomerID>
50385723

> <BindingDB Ligand Name>
CHEMBL2043311

> <Target Name Assigned by Curator or DataSource>
Aldo-keto reductase family 1 member C2

> <Target Source Organism According to Curator or DataSource>
Homo sapiens

> <Ki (nM)>


> <IC50 (nM)>
 1490

> <Kd (nM)>


> <EC50 (nM)>


> <kon (M-1-s-1)>


> <koff (s-1)>


> <pH>


> <Temp C>


> <Curation/DataSource>
ChEMBL

> <Article DOI>
10.1021/jm201547v

> <PMID>
22263837

> <PubChem AID>


> <Patent Number>


> <Authors>
Adeniji, AO; Twenter, BM; Byrns, MC; Jin, Y; Chen, M; Winkler, JD; Penning, TM

> <Institution>
University of Pennsylvania

> <Link to Ligand in BindingDB>
http://www.bindingdb.org/bind/chemsearch/marvin/MolStructure.jsp?monomerid=50385723

> <Link to Ligand-Target Pair in BindingDB>
http://www.bindingdb.org/jsp/dbsearch/PrimarySearch_ki.jsp?energyterm=kJ/mole&tag=pol&polymerid=3022&target=Aldo-keto+reductase+family+1+member+C2&column=ki&startPg=0&Increment=50&submit=Search

> <Link to Ligand-Target Pair in BindingDB>
http://www.bindingdb.org/jsp/dbsearch/PrimarySearch_ki.jsp?energyterm=kJ/mole&tag=r21&monomerid=50385723&enzyme=Aldo-keto+reductase+family+1+member+C2&column=ki&startPg=0&Increment=50&submit=Search

> <Ligand HET ID in PDB>


> <PDB ID(s) for Ligand-Target Complex>


> <PubChem CID>
12648027

> <PubChem SID>
160864806

> <ChEBI ID of Ligand>


> <ChEMBL ID of Ligand>
CHEMBL2043311

> <DrugBank ID of Ligand>


> <IUPHAR_GRAC ID of Ligand>


> <KEGG ID of Ligand>


> <ZINC ID of Ligand>
ZINC25502890

> <Number of Protein Chains in Target (>1 implies a multichain complex)>
1

> <BindingDB Target Chain Sequence>
MDSKYQCVKLNDGHFMPVLGFGTYAPAEVPKSKALEAVKLAIEAGFHHIDSAHVYNNEEQVGLAIRSKIADGSVKREDIFYTSKLWSNSHRPELVRPALERSLKNLQLDYVDLYLIHFPVSVKPGEEVIPKDENGKILFDTVDLCATWEAMEKCKDAGLAKSIGVSNFNHRLLEMILNKPGLKYKPVCNQVECHPYFNQRKLLDFCKSKDIVLVAYSALGSHREEPWVDPNSPVLLEDPVLCALAKKHKRTPALIALRYQLQRGVVVLAKSYNEQRIRQNVQVFEFQLTSEEMKAIDGLNRNVRYLTLDIFAGPPNYPFSDEY

> <PDB ID(s) of Target Chain>
1IHI,1J96,1XJB,2HDJ,4JQ1,4JQ2,4JQ3,4JQ4,4JQA,4JTQ,4JTR,4L1W,4XO6,4XO7,6F2U

> <UniProt (SwissProt) Recommended Name of Target Chain>
Aldo-keto reductase family 1 member C2

> <UniProt (SwissProt) Entry Name of Target Chain>
AK1C2_HUMAN

> <UniProt (SwissProt) Primary ID of Target Chain>
P52895

> <UniProt (SwissProt) Secondary ID(s) of Target Chain>
A8K2N9,B4DKR9,Q14133,Q5SR16,Q7M4N1,Q96A71

> <UniProt (SwissProt) Alternative ID(s) of Target Chain>


> <UniProt (TrEMBL) Submitted Name of Target Chain>


> <UniProt (TrEMBL) Entry Name of Target Chain>


> <UniProt (TrEMBL) Primary ID of Target Chain>


> <UniProt (TrEMBL) Secondary ID(s) of Target Chain>


> <UniProt (TrEMBL) Alternative ID(s) of Target Chain>


$$$$
BindingDB_50385724_mol_1

Vconf v2.0 Academic SN VC001-00000579
 35 36  0  0  0  0  0  0  0  0999 V2000
   30.3210  -14.1710    0.7360 C   0  0  0  0  0  0  0  0  0  0  0
   30.4100  -15.3860    0.0280 C   0  0  0  0  0  0  0  0  0  0  0
   31.4980  -16.2480    0.2190 C   0  0  0  0  0  0  0  0  0  0  0
   32.5380  -15.9310    1.1240 C   0  0  0  0  0  0  0  0  0  0  0
   32.4680  -14.7080    1.8470 C   0  0  0  0  0  0  0  0  0  0  0
   31.3600  -13.8530    1.6370 C   0  0  0  0  0  0  0  0  0  0  0
   33.4580  -14.2940    2.7790 C   0  0  0  0  0  0  0  0  0  0  0
   33.3540  -13.1220    3.4460 O   0  0  0  0  0  0  0  0  0  0  0
   34.4750  -14.9730    3.0420 O   0  0  0  0  0  0  0  0  0  0  0
   33.5960  -16.7810    1.3110 N   0  0  0  0  0  0  0  0  0  0  0
   33.7960  -17.9710    0.6960 C   0  0  0  0  0  0  0  0  0  0  0
   34.4790  -18.0270   -0.5330 C   0  0  0  0  0  0  0  0  0  0  0
   34.6970  -19.2650   -1.1630 C   0  0  0  0  0  0  0  0  0  0  0
   34.2390  -20.4570   -0.5690 C   0  0  0  0  0  0  0  0  0  0  0
   33.5620  -20.3970    0.6660 C   0  0  0  0  0  0  0  0  0  0  0
   33.3450  -19.1600    1.2970 C   0  0  0  0  0  0  0  0  0  0  0
   29.2220  -13.2910    0.5560 C   0  0  0  0  0  0  0  0  0  0  0
   29.1590  -12.2150    1.1940 O   0  0  0  0  0  0  0  0  0  0  0
   28.1110  -13.5780   -0.3650 C   0  0  0  0  0  0  0  0  0  0  0
   34.4740  -21.7430   -1.2430 C   0  0  0  0  0  0  0  0  0  0  0
   29.6830  -15.6570   -0.6340 H   0  0  0  0  0  0  0  0  0  0  0
   31.5240  -17.1190   -0.3120 H   0  0  0  0  0  0  0  0  0  0  0
   31.3040  -12.9720    2.1540 H   0  0  0  0  0  0  0  0  0  0  0
   34.1000  -12.9530    4.0580 H   0  0  0  0  0  0  0  0  0  0  0
   34.2750  -16.5140    1.9480 H   0  0  0  0  0  0  0  0  0  0  0
   34.8170  -17.1700   -0.9710 H   0  0  0  0  0  0  0  0  0  0  0
   35.1900  -19.2950   -2.0560 H   0  0  0  0  0  0  0  0  0  0  0
   33.2280  -21.2530    1.1090 H   0  0  0  0  0  0  0  0  0  0  0
   32.8560  -19.1280    2.1930 H   0  0  0  0  0  0  0  0  0  0  0
   27.3830  -12.7670   -0.3340 H   0  0  0  0  0  0  0  0  0  0  0
   28.4900  -13.6720   -1.3830 H   0  0  0  0  0  0  0  0  0  0  0
   27.6170  -14.5060   -0.0720 H   0  0  0  0  0  0  0  0  0  0  0
   34.0630  -22.5730   -0.6660 H   0  0  0  0  0  0  0  0  0  0  0
   34.0010  -21.7330   -2.2260 H   0  0  0  0  0  0  0  0  0  0  0
   35.5470  -21.9010   -1.3650 H   0  0  0  0  0  0  0  0  0  0  0
  1  2  2  0  0  0  0
  1  6  1  0  0  0  0
  1 17  1  0  0  0  0
  2  3  1  0  0  0  0
  2 21  1  0  0  0  0
  3  4  2  0  0  0  0
  3 22  1  0  0  0  0
  4  5  1  0  0  0  0
  4 10  1  0  0  0  0
  5  6  2  0  0  0  0
  5  7  1  0  0  0  0
  6 23  1  0  0  0  0
  7  8  1  0  0  0  0
  7  9  2  0  0  0  0
  8 24  1  0  0  0  0
 10 11  1  0  0  0  0
 10 25  1  0  0  0  0
 11 12  2  0  0  0  0
 11 16  1  0  0  0  0
 12 13  1  0  0  0  0
 12 26  1  0  0  0  0
 13 14  2  0  0  0  0
 13 27  1  0  0  0  0
 14 15  1  0  0  0  0
 14 20  1  0  0  0  0
 15 16  2  0  0  0  0
 15 28  1  0  0  0  0
 16 29  1  0  0  0  0
 17 18  2  0  0  0  0
 17 19  1  0  0  0  0
 19 30  1  0  0  0  0
 19 31  1  0  0  0  0
 19 32  1  0  0  0  0
 20 33  1  0  0  0  0
 20 34  1  0  0  0  0
 20 35  1  0  0  0  0
M  END
> <From>
www.bindingDB.org

> <BindingDB Reactant_set_id>
50940628

> <Ligand InChI>
InChI=1S/C16H15NO3/c1-10-3-6-13(7-4-10)17-15-8-5-12(11(2)18)9-14(15)16(19)20/h3-9,17H,1-2H3,(H,19,20)

> <Ligand InChI Key>
LITXZOIHITZLME-UHFFFAOYSA-N

> <BindingDB MonomerID>
50385724

> <BindingDB Ligand Name>
CHEMBL2041003

> <Target Name Assigned by Curator or DataSource>
Aldo-keto reductase family 1 member C2

> <Target Source Organism According to Curator or DataSource>
Homo sapiens

> <Ki (nM)>


> <IC50 (nM)>
 8230

> <Kd (nM)>


> <EC50 (nM)>


> <kon (M-1-s-1)>


> <koff (s-1)>


> <pH>


> <Temp C>


> <Curation/DataSource>
ChEMBL

> <Article DOI>
10.1021/jm201547v

> <PMID>
22263837

> <PubChem AID>


> <Patent Number>


> <Authors>
Adeniji, AO; Twenter, BM; Byrns, MC; Jin, Y; Chen, M; Winkler, JD; Penning, TM

> <Institution>
University of Pennsylvania

> <Link to Ligand in BindingDB>
http://www.bindingdb.org/bind/chemsearch/marvin/MolStructure.jsp?monomerid=50385724

> <Link to Ligand-Target Pair in BindingDB>
http://www.bindingdb.org/jsp/dbsearch/PrimarySearch_ki.jsp?energyterm=kJ/mole&tag=pol&polymerid=3022&target=Aldo-keto+reductase+family+1+member+C2&column=ki&startPg=0&Increment=50&submit=Search

> <Link to Ligand-Target Pair in BindingDB>
http://www.bindingdb.org/jsp/dbsearch/PrimarySearch_ki.jsp?energyterm=kJ/mole&tag=r21&monomerid=50385724&enzyme=Aldo-keto+reductase+family+1+member+C2&column=ki&startPg=0&Increment=50&submit=Search

> <Ligand HET ID in PDB>


> <PDB ID(s) for Ligand-Target Complex>


> <PubChem CID>
70683954

> <PubChem SID>
160864807

> <ChEBI ID of Ligand>


> <ChEMBL ID of Ligand>
CHEMBL2041003

> <DrugBank ID of Ligand>


> <IUPHAR_GRAC ID of Ligand>


> <KEGG ID of Ligand>


> <ZINC ID of Ligand>
ZINC84724547

> <Number of Protein Chains in Target (>1 implies a multichain complex)>
1

> <BindingDB Target Chain Sequence>
MDSKYQCVKLNDGHFMPVLGFGTYAPAEVPKSKALEAVKLAIEAGFHHIDSAHVYNNEEQVGLAIRSKIADGSVKREDIFYTSKLWSNSHRPELVRPALERSLKNLQLDYVDLYLIHFPVSVKPGEEVIPKDENGKILFDTVDLCATWEAMEKCKDAGLAKSIGVSNFNHRLLEMILNKPGLKYKPVCNQVECHPYFNQRKLLDFCKSKDIVLVAYSALGSHREEPWVDPNSPVLLEDPVLCALAKKHKRTPALIALRYQLQRGVVVLAKSYNEQRIRQNVQVFEFQLTSEEMKAIDGLNRNVRYLTLDIFAGPPNYPFSDEY

> <PDB ID(s) of Target Chain>
1IHI,1J96,1XJB,2HDJ,4JQ1,4JQ2,4JQ3,4JQ4,4JQA,4JTQ,4JTR,4L1W,4XO6,4XO7,6F2U

> <UniProt (SwissProt) Recommended Name of Target Chain>
Aldo-keto reductase family 1 member C2

> <UniProt (SwissProt) Entry Name of Target Chain>
AK1C2_HUMAN

> <UniProt (SwissProt) Primary ID of Target Chain>
P52895

> <UniProt (SwissProt) Secondary ID(s) of Target Chain>
A8K2N9,B4DKR9,Q14133,Q5SR16,Q7M4N1,Q96A71

> <UniProt (SwissProt) Alternative ID(s) of Target Chain>


> <UniProt (TrEMBL) Submitted Name of Target Chain>


> <UniProt (TrEMBL) Entry Name of Target Chain>


> <UniProt (TrEMBL) Primary ID of Target Chain>


> <UniProt (TrEMBL) Secondary ID(s) of Target Chain>


> <UniProt (TrEMBL) Alternative ID(s) of Target Chain>


$$$$
BindingDB_50385725_mol_1

Vconf v2.0 Academic SN VC001-00000579
 30 31  0  0  0  0  0  0  0  0999 V2000
   24.9970   -7.5440    0.8540 C   0  0  0  0  0  0  0  0  0  0  0
   25.0970   -8.9370    1.0030 C   0  0  0  0  0  0  0  0  0  0  0
   26.3580   -9.5410    1.1280 C   0  0  0  0  0  0  0  0  0  0  0
   27.5280   -8.7620    1.0940 C   0  0  0  0  0  0  0  0  0  0  0
   27.4140   -7.3610    0.9590 C   0  0  0  0  0  0  0  0  0  0  0
   26.1540   -6.7350    0.8310 C   0  0  0  0  0  0  0  0  0  0  0
   28.7200   -9.4000    1.2410 N   0  0  0  0  0  0  0  0  0  0  0
   29.9100   -9.0540    0.6780 C   0  0  0  0  0  0  0  0  0  0  0
   30.0180   -8.4910   -0.6120 C   0  0  0  0  0  0  0  0  0  0  0
   31.2770   -8.1710   -1.1460 C   0  0  0  0  0  0  0  0  0  0  0
   32.4400   -8.4230   -0.3990 C   0  0  0  0  0  0  0  0  0  0  0
   32.3520   -8.9990    0.8820 C   0  0  0  0  0  0  0  0  0  0  0
   31.0840   -9.3150    1.4110 C   0  0  0  0  0  0  0  0  0  0  0
   33.5800   -9.2630    1.6480 C   0  0  0  0  0  0  0  0  0  0  0
   26.0620   -5.3610    0.6890 C   0  0  0  0  0  0  0  0  0  0  0
   27.1380   -4.6010    0.5780 O   0  0  0  0  0  0  0  0  0  0  0
   24.9850   -4.7830    0.6590 O   0  0  0  0  0  0  0  0  0  0  0
   24.0720   -7.1210    0.7630 H   0  0  0  0  0  0  0  0  0  0  0
   24.2520   -9.5100    1.0230 H   0  0  0  0  0  0  0  0  0  0  0
   26.4200  -10.5540    1.2400 H   0  0  0  0  0  0  0  0  0  0  0
   28.2610   -6.7900    0.9580 H   0  0  0  0  0  0  0  0  0  0  0
   28.7240  -10.1840    1.8120 H   0  0  0  0  0  0  0  0  0  0  0
   29.1800   -8.3140   -1.1680 H   0  0  0  0  0  0  0  0  0  0  0
   31.3470   -7.7600   -2.0770 H   0  0  0  0  0  0  0  0  0  0  0
   33.3520   -8.1890   -0.7930 H   0  0  0  0  0  0  0  0  0  0  0
   31.0150   -9.7350    2.3390 H   0  0  0  0  0  0  0  0  0  0  0
   33.3530   -9.7120    2.6160 H   0  0  0  0  0  0  0  0  0  0  0
   34.2200   -9.9450    1.0870 H   0  0  0  0  0  0  0  0  0  0  0
   34.1150   -8.3270    1.8140 H   0  0  0  0  0  0  0  0  0  0  0
   26.9360   -3.6480    0.4810 H   0  0  0  0  0  0  0  0  0  0  0
  1  2  2  0  0  0  0
  1  6  1  0  0  0  0
  1 18  1  0  0  0  0
  2  3  1  0  0  0  0
  2 19  1  0  0  0  0
  3  4  2  0  0  0  0
  3 20  1  0  0  0  0
  4  5  1  0  0  0  0
  4  7  1  0  0  0  0
  5  6  2  0  0  0  0
  5 21  1  0  0  0  0
  6 15  1  0  0  0  0
  7  8  1  0  0  0  0
  7 22  1  0  0  0  0
  8  9  2  0  0  0  0
  8 13  1  0  0  0  0
  9 10  1  0  0  0  0
  9 23  1  0  0  0  0
 10 11  2  0  0  0  0
 10 24  1  0  0  0  0
 11 12  1  0  0  0  0
 11 25  1  0  0  0  0
 12 13  2  0  0  0  0
 12 14  1  0  0  0  0
 13 26  1  0  0  0  0
 14 27  1  0  0  0  0
 14 28  1  0  0  0  0
 14 29  1  0  0  0  0
 15 16  1  0  0  0  0
 15 17  2  0  0  0  0
 16 30  1  0  0  0  0
M  END
> <From>
www.bindingDB.org

> <BindingDB Reactant_set_id>
50940645

> <Ligand InChI>
InChI=1S/C14H13NO2/c1-10-4-2-6-12(8-10)15-13-7-3-5-11(9-13)14(16)17/h2-9,15H,1H3,(H,16,17)

> <Ligand InChI Key>
VTTJXTWWEMXBNA-UHFFFAOYSA-N

> <BindingDB MonomerID>
50385725

> <BindingDB Ligand Name>
CHEMBL2041162

> <Target Name Assigned by Curator or DataSource>
Aldo-keto reductase family 1 member C2

> <Target Source Organism According to Curator or DataSource>
Homo sapiens

> <Ki (nM)>


> <IC50 (nM)>
 22900

> <Kd (nM)>


> <EC50 (nM)>


> <kon (M-1-s-1)>


> <koff (s-1)>


> <pH>


> <Temp C>


> <Curation/DataSource>
ChEMBL

> <Article DOI>
10.1021/jm201547v

> <PMID>
22263837

> <PubChem AID>


> <Patent Number>


> <Authors>
Adeniji, AO; Twenter, BM; Byrns, MC; Jin, Y; Chen, M; Winkler, JD; Penning, TM

> <Institution>
University of Pennsylvania

> <Link to Ligand in BindingDB>
http://www.bindingdb.org/bind/chemsearch/marvin/MolStructure.jsp?monomerid=50385725

> <Link to Ligand-Target Pair in BindingDB>
http://www.bindingdb.org/jsp/dbsearch/PrimarySearch_ki.jsp?energyterm=kJ/mole&tag=pol&polymerid=3022&target=Aldo-keto+reductase+family+1+member+C2&column=ki&startPg=0&Increment=50&submit=Search

> <Link to Ligand-Target Pair in BindingDB>
http://www.bindingdb.org/jsp/dbsearch/PrimarySearch_ki.jsp?energyterm=kJ/mole&tag=r21&monomerid=50385725&enzyme=Aldo-keto+reductase+family+1+member+C2&column=ki&startPg=0&Increment=50&submit=Search

> <Ligand HET ID in PDB>


> <PDB ID(s) for Ligand-Target Complex>


> <PubChem CID>
70683956

> <PubChem SID>
160864808

> <ChEBI ID of Ligand>


> <ChEMBL ID of Ligand>
CHEMBL2041162

> <DrugBank ID of Ligand>


> <IUPHAR_GRAC ID of Ligand>


> <KEGG ID of Ligand>


> <ZINC ID of Ligand>
ZINC84713303

> <Number of Protein Chains in Target (>1 implies a multichain complex)>
1

> <BindingDB Target Chain Sequence>
MDSKYQCVKLNDGHFMPVLGFGTYAPAEVPKSKALEAVKLAIEAGFHHIDSAHVYNNEEQVGLAIRSKIADGSVKREDIFYTSKLWSNSHRPELVRPALERSLKNLQLDYVDLYLIHFPVSVKPGEEVIPKDENGKILFDTVDLCATWEAMEKCKDAGLAKSIGVSNFNHRLLEMILNKPGLKYKPVCNQVECHPYFNQRKLLDFCKSKDIVLVAYSALGSHREEPWVDPNSPVLLEDPVLCALAKKHKRTPALIALRYQLQRGVVVLAKSYNEQRIRQNVQVFEFQLTSEEMKAIDGLNRNVRYLTLDIFAGPPNYPFSDEY

> <PDB ID(s) of Target Chain>
1IHI,1J96,1XJB,2HDJ,4JQ1,4JQ2,4JQ3,4JQ4,4JQA,4JTQ,4JTR,4L1W,4XO6,4XO7,6F2U

> <UniProt (SwissProt) Recommended Name of Target Chain>
Aldo-keto reductase family 1 member C2

> <UniProt (SwissProt) Entry Name of Target Chain>
AK1C2_HUMAN

> <UniProt (SwissProt) Primary ID of Target Chain>
P52895

> <UniProt (SwissProt) Secondary ID(s) of Target Chain>
A8K2N9,B4DKR9,Q14133,Q5SR16,Q7M4N1,Q96A71

> <UniProt (SwissProt) Alternative ID(s) of Target Chain>


> <UniProt (TrEMBL) Submitted Name of Target Chain>


> <UniProt (TrEMBL) Entry Name of Target Chain>


> <UniProt (TrEMBL) Primary ID of Target Chain>


> <UniProt (TrEMBL) Secondary ID(s) of Target Chain>


> <UniProt (TrEMBL) Alternative ID(s) of Target Chain>


$$$$
BindingDB_50385726_mol_1

Vconf v2.0 Academic SN VC001-00000579
 35 36  0  0  0  0  0  0  0  0999 V2000
    6.4310   -8.0210    0.6010 C   0  0  0  0  0  0  0  0  0  0  0
    6.3990   -9.2430   -0.0830 C   0  0  0  0  0  0  0  0  0  0  0
    7.3530  -10.2270    0.2390 C   0  0  0  0  0  0  0  0  0  0  0
    8.3450  -10.0080    1.2260 C   0  0  0  0  0  0  0  0  0  0  0
    8.3610   -8.7660    1.9220 C   0  0  0  0  0  0  0  0  0  0  0
    7.3960   -7.7870    1.5900 C   0  0  0  0  0  0  0  0  0  0  0
    9.3010   -8.4460    2.9390 C   0  0  0  0  0  0  0  0  0  0  0
    9.2780   -7.2520    3.5730 O   0  0  0  0  0  0  0  0  0  0  0
   10.1970   -9.2350    3.3130 O   0  0  0  0  0  0  0  0  0  0  0
    9.2720  -10.9720    1.5300 N   0  0  0  0  0  0  0  0  0  0  0
    9.4340  -12.1870    0.9480 C   0  0  0  0  0  0  0  0  0  0  0
    9.3540  -13.3400    1.7510 C   0  0  0  0  0  0  0  0  0  0  0
    9.5470  -14.6110    1.1850 C   0  0  0  0  0  0  0  0  0  0  0
    9.8310  -14.7340   -0.1850 C   0  0  0  0  0  0  0  0  0  0  0
    9.9290  -13.5920   -1.0000 C   0  0  0  0  0  0  0  0  0  0  0
    9.7400  -12.3180   -0.4230 C   0  0  0  0  0  0  0  0  0  0  0
   10.2070  -13.7920   -2.3230 O   0  0  0  0  0  0  0  0  0  0  0
   10.2610  -12.7190   -3.2670 C   0  0  0  0  0  0  0  0  0  0  0
    5.4280   -9.4050   -1.0300 O   0  0  0  0  0  0  0  0  0  0  0
    5.3000  -10.5990   -1.8060 C   0  0  0  0  0  0  0  0  0  0  0
    5.7460   -7.2980    0.3800 H   0  0  0  0  0  0  0  0  0  0  0
    7.3150  -11.1190   -0.2510 H   0  0  0  0  0  0  0  0  0  0  0
    7.3850   -6.8850    2.0700 H   0  0  0  0  0  0  0  0  0  0  0
    9.9740   -7.1570    4.2550 H   0  0  0  0  0  0  0  0  0  0  0
    9.8750  -10.7810    2.2640 H   0  0  0  0  0  0  0  0  0  0  0
    9.1510  -13.2560    2.7480 H   0  0  0  0  0  0  0  0  0  0  0
    9.4820  -15.4450    1.7700 H   0  0  0  0  0  0  0  0  0  0  0
    9.9690  -15.6600   -0.5910 H   0  0  0  0  0  0  0  0  0  0  0
    9.8220  -11.4810   -0.9990 H   0  0  0  0  0  0  0  0  0  0  0
   10.4830  -13.1290   -4.2520 H   0  0  0  0  0  0  0  0  0  0  0
    9.3010  -12.2030   -3.3080 H   0  0  0  0  0  0  0  0  0  0  0
   11.0470  -12.0130   -2.9950 H   0  0  0  0  0  0  0  0  0  0  0
    4.4630  -10.4840   -2.4940 H   0  0  0  0  0  0  0  0  0  0  0
    6.2100  -10.7750   -2.3840 H   0  0  0  0  0  0  0  0  0  0  0
    5.1080  -11.4540   -1.1560 H   0  0  0  0  0  0  0  0  0  0  0
  1  2  2  0  0  0  0
  1  6  1  0  0  0  0
  1 21  1  0  0  0  0
  2  3  1  0  0  0  0
  2 19  1  0  0  0  0
  3  4  2  0  0  0  0
  3 22  1  0  0  0  0
  4  5  1  0  0  0  0
  4 10  1  0  0  0  0
  5  6  2  0  0  0  0
  5  7  1  0  0  0  0
  6 23  1  0  0  0  0
  7  8  1  0  0  0  0
  7  9  2  0  0  0  0
  8 24  1  0  0  0  0
 10 11  1  0  0  0  0
 10 25  1  0  0  0  0
 11 12  2  0  0  0  0
 11 16  1  0  0  0  0
 12 13  1  0  0  0  0
 12 26  1  0  0  0  0
 13 14  2  0  0  0  0
 13 27  1  0  0  0  0
 14 15  1  0  0  0  0
 14 28  1  0  0  0  0
 15 16  2  0  0  0  0
 15 17  1  0  0  0  0
 16 29  1  0  0  0  0
 17 18  1  0  0  0  0
 18 30  1  0  0  0  0
 18 31  1  0  0  0  0
 18 32  1  0  0  0  0
 19 20  1  0  0  0  0
 20 33  1  0  0  0  0
 20 34  1  0  0  0  0
 20 35  1  0  0  0  0
M  END
> <From>
www.bindingDB.org

> <BindingDB Reactant_set_id>
50940599

> <Ligand InChI>
InChI=1S/C15H15NO4/c1-19-11-5-3-4-10(8-11)16-14-9-12(20-2)6-7-13(14)15(17)18/h3-9,16H,1-2H3,(H,17,18)

> <Ligand InChI Key>
WKVVYZAWSBHCMA-UHFFFAOYSA-N

> <BindingDB MonomerID>
50385726

> <BindingDB Ligand Name>
CHEMBL2043315

> <Target Name Assigned by Curator or DataSource>
Aldo-keto reductase family 1 member C2

> <Target Source Organism According to Curator or DataSource>
Homo sapiens

> <Ki (nM)>


> <IC50 (nM)>
 1470

> <Kd (nM)>


> <EC50 (nM)>


> <kon (M-1-s-1)>


> <koff (s-1)>


> <pH>


> <Temp C>


> <Curation/DataSource>
ChEMBL

> <Article DOI>
10.1021/jm201547v

> <PMID>
22263837

> <PubChem AID>


> <Patent Number>


> <Authors>
Adeniji, AO; Twenter, BM; Byrns, MC; Jin, Y; Chen, M; Winkler, JD; Penning, TM

> <Institution>
University of Pennsylvania

> <Link to Ligand in BindingDB>
http://www.bindingdb.org/bind/chemsearch/marvin/MolStructure.jsp?monomerid=50385726

> <Link to Ligand-Target Pair in BindingDB>
http://www.bindingdb.org/jsp/dbsearch/PrimarySearch_ki.jsp?energyterm=kJ/mole&tag=pol&polymerid=3022&target=Aldo-keto+reductase+family+1+member+C2&column=ki&startPg=0&Increment=50&submit=Search

> <Link to Ligand-Target Pair in BindingDB>
http://www.bindingdb.org/jsp/dbsearch/PrimarySearch_ki.jsp?energyterm=kJ/mole&tag=r21&monomerid=50385726&enzyme=Aldo-keto+reductase+family+1+member+C2&column=ki&startPg=0&Increment=50&submit=Search

> <Ligand HET ID in PDB>


> <PDB ID(s) for Ligand-Target Complex>


> <PubChem CID>
54436150

> <PubChem SID>
160864809

> <ChEBI ID of Ligand>


> <ChEMBL ID of Ligand>
CHEMBL2043315

> <DrugBank ID of Ligand>


> <IUPHAR_GRAC ID of Ligand>


> <KEGG ID of Ligand>


> <ZINC ID of Ligand>
ZINC84652348

> <Number of Protein Chains in Target (>1 implies a multichain complex)>
1

> <BindingDB Target Chain Sequence>
MDSKYQCVKLNDGHFMPVLGFGTYAPAEVPKSKALEAVKLAIEAGFHHIDSAHVYNNEEQVGLAIRSKIADGSVKREDIFYTSKLWSNSHRPELVRPALERSLKNLQLDYVDLYLIHFPVSVKPGEEVIPKDENGKILFDTVDLCATWEAMEKCKDAGLAKSIGVSNFNHRLLEMILNKPGLKYKPVCNQVECHPYFNQRKLLDFCKSKDIVLVAYSALGSHREEPWVDPNSPVLLEDPVLCALAKKHKRTPALIALRYQLQRGVVVLAKSYNEQRIRQNVQVFEFQLTSEEMKAIDGLNRNVRYLTLDIFAGPPNYPFSDEY

> <PDB ID(s) of Target Chain>
1IHI,1J96,1XJB,2HDJ,4JQ1,4JQ2,4JQ3,4JQ4,4JQA,4JTQ,4JTR,4L1W,4XO6,4XO7,6F2U

> <UniProt (SwissProt) Recommended Name of Target Chain>
Aldo-keto reductase family 1 member C2

> <UniProt (SwissProt) Entry Name of Target Chain>
AK1C2_HUMAN

> <UniProt (SwissProt) Primary ID of Target Chain>
P52895

> <UniProt (SwissProt) Secondary ID(s) of Target Chain>
A8K2N9,B4DKR9,Q14133,Q5SR16,Q7M4N1,Q96A71

> <UniProt (SwissProt) Alternative ID(s) of Target Chain>


> <UniProt (TrEMBL) Submitted Name of Target Chain>


> <UniProt (TrEMBL) Entry Name of Target Chain>


> <UniProt (TrEMBL) Primary ID of Target Chain>


> <UniProt (TrEMBL) Secondary ID(s) of Target Chain>


> <UniProt (TrEMBL) Alternative ID(s) of Target Chain>


$$$$
BindingDB_50385727_mol_1

Vconf v2.0 Academic SN VC001-00000579
 35 36  0  0  0  0  0  0  0  0999 V2000
    1.8360   -1.2510    0.6650 C   0  0  0  0  0  0  0  0  0  0  0
    1.9280   -2.4730   -0.0300 C   0  0  0  0  0  0  0  0  0  0  0
    2.9870   -3.3580    0.2100 C   0  0  0  0  0  0  0  0  0  0  0
    3.9970   -3.0560    1.1530 C   0  0  0  0  0  0  0  0  0  0  0
    3.9250   -1.8260    1.8640 C   0  0  0  0  0  0  0  0  0  0  0
    2.8450   -0.9480    1.6040 C   0  0  0  0  0  0  0  0  0  0  0
    4.8870   -1.4240    2.8290 C   0  0  0  0  0  0  0  0  0  0  0
    4.7830   -0.2440    3.4810 O   0  0  0  0  0  0  0  0  0  0  0
    5.8790   -2.1210    3.1360 O   0  0  0  0  0  0  0  0  0  0  0
    5.0270   -3.9280    1.3910 N   0  0  0  0  0  0  0  0  0  0  0
    5.2250   -5.1280    0.7950 C   0  0  0  0  0  0  0  0  0  0  0
    4.7840   -6.3040    1.4260 C   0  0  0  0  0  0  0  0  0  0  0
    4.9980   -7.5500    0.8170 C   0  0  0  0  0  0  0  0  0  0  0
    5.6600   -7.6220   -0.4190 C   0  0  0  0  0  0  0  0  0  0  0
    6.1220   -6.4540   -1.0680 C   0  0  0  0  0  0  0  0  0  0  0
    5.8950   -5.2080   -0.4410 C   0  0  0  0  0  0  0  0  0  0  0
    0.7580   -0.3620    0.4180 C   0  0  0  0  0  0  0  0  0  0  0
   -0.1270   -0.6520   -0.4190 O   0  0  0  0  0  0  0  0  0  0  0
    0.6110    0.9260    1.1140 C   0  0  0  0  0  0  0  0  0  0  0
    6.8230   -6.5710   -2.3740 C   0  0  0  0  0  0  0  0  0  0  0
    7.2350   -5.3680   -2.8990 F   0  0  0  0  0  0  0  0  0  0  0
    7.9450   -7.3540   -2.2400 F   0  0  0  0  0  0  0  0  0  0  0
    5.9950   -7.1530   -3.3030 F   0  0  0  0  0  0  0  0  0  0  0
    1.2190   -2.7310   -0.7190 H   0  0  0  0  0  0  0  0  0  0  0
    3.0140   -4.2340   -0.3120 H   0  0  0  0  0  0  0  0  0  0  0
    2.7920   -0.0640    2.1150 H   0  0  0  0  0  0  0  0  0  0  0
    5.5100   -0.0830    4.1180 H   0  0  0  0  0  0  0  0  0  0  0
    5.6800   -3.6740    2.0590 H   0  0  0  0  0  0  0  0  0  0  0
    4.3040   -6.2540    2.3260 H   0  0  0  0  0  0  0  0  0  0  0
    4.6730   -8.4030    1.2740 H   0  0  0  0  0  0  0  0  0  0  0
    5.8100   -8.5350   -0.8510 H   0  0  0  0  0  0  0  0  0  0  0
    6.2160   -4.3470   -0.8840 H   0  0  0  0  0  0  0  0  0  0  0
   -0.2880    1.4360    0.7680 H   0  0  0  0  0  0  0  0  0  0  0
    0.5290    0.7580    2.1890 H   0  0  0  0  0  0  0  0  0  0  0
    1.4750    1.5580    0.9090 H   0  0  0  0  0  0  0  0  0  0  0
  1  2  2  0  0  0  0
  1  6  1  0  0  0  0
  1 17  1  0  0  0  0
  2  3  1  0  0  0  0
  2 24  1  0  0  0  0
  3  4  2  0  0  0  0
  3 25  1  0  0  0  0
  4  5  1  0  0  0  0
  4 10  1  0  0  0  0
  5  6  2  0  0  0  0
  5  7  1  0  0  0  0
  6 26  1  0  0  0  0
  7  8  1  0  0  0  0
  7  9  2  0  0  0  0
  8 27  1  0  0  0  0
 10 11  1  0  0  0  0
 10 28  1  0  0  0  0
 11 12  2  0  0  0  0
 11 16  1  0  0  0  0
 12 13  1  0  0  0  0
 12 29  1  0  0  0  0
 13 14  2  0  0  0  0
 13 30  1  0  0  0  0
 14 15  1  0  0  0  0
 14 31  1  0  0  0  0
 15 16  2  0  0  0  0
 15 20  1  0  0  0  0
 16 32  1  0  0  0  0
 17 18  2  0  0  0  0
 17 19  1  0  0  0  0
 19 33  1  0  0  0  0
 19 34  1  0  0  0  0
 19 35  1  0  0  0  0
 20 21  1  0  0  0  0
 20 22  1  0  0  0  0
 20 23  1  0  0  0  0
M  END
> <From>
www.bindingDB.org

> <BindingDB Reactant_set_id>
50940551

> <Ligand InChI>
InChI=1S/C16H12F3NO3/c1-9(21)10-5-6-14(13(7-10)15(22)23)20-12-4-2-3-11(8-12)16(17,18)19/h2-8,20H,1H3,(H,22,23)

> <Ligand InChI Key>
QMTILDNWALRKQZ-UHFFFAOYSA-N

> <BindingDB MonomerID>
50385727

> <BindingDB Ligand Name>
CHEMBL2040887

> <Target Name Assigned by Curator or DataSource>
Aldo-keto reductase family 1 member C2

> <Target Source Organism According to Curator or DataSource>
Homo sapiens

> <Ki (nM)>


> <IC50 (nM)>
 2670

> <Kd (nM)>


> <EC50 (nM)>


> <kon (M-1-s-1)>


> <koff (s-1)>


> <pH>


> <Temp C>


> <Curation/DataSource>
ChEMBL

> <Article DOI>
10.1021/jm201547v

> <PMID>
22263837

> <PubChem AID>


> <Patent Number>


> <Authors>
Adeniji, AO; Twenter, BM; Byrns, MC; Jin, Y; Chen, M; Winkler, JD; Penning, TM

> <Institution>
University of Pennsylvania

> <Link to Ligand in BindingDB>
http://www.bindingdb.org/bind/chemsearch/marvin/MolStructure.jsp?monomerid=50385727

> <Link to Ligand-Target Pair in BindingDB>
http://www.bindingdb.org/jsp/dbsearch/PrimarySearch_ki.jsp?energyterm=kJ/mole&tag=pol&polymerid=3022&target=Aldo-keto+reductase+family+1+member+C2&column=ki&startPg=0&Increment=50&submit=Search

> <Link to Ligand-Target Pair in BindingDB>
http://www.bindingdb.org/jsp/dbsearch/PrimarySearch_ki.jsp?energyterm=kJ/mole&tag=r21&monomerid=50385727&enzyme=Aldo-keto+reductase+family+1+member+C2&column=ki&startPg=0&Increment=50&submit=Search

> <Ligand HET ID in PDB>


> <PDB ID(s) for Ligand-Target Complex>


> <PubChem CID>
70696515

> <PubChem SID>
160864810

> <ChEBI ID of Ligand>


> <ChEMBL ID of Ligand>
CHEMBL2040887

> <DrugBank ID of Ligand>


> <IUPHAR_GRAC ID of Ligand>


> <KEGG ID of Ligand>


> <ZINC ID of Ligand>
ZINC84708305

> <Number of Protein Chains in Target (>1 implies a multichain complex)>
1

> <BindingDB Target Chain Sequence>
MDSKYQCVKLNDGHFMPVLGFGTYAPAEVPKSKALEAVKLAIEAGFHHIDSAHVYNNEEQVGLAIRSKIADGSVKREDIFYTSKLWSNSHRPELVRPALERSLKNLQLDYVDLYLIHFPVSVKPGEEVIPKDENGKILFDTVDLCATWEAMEKCKDAGLAKSIGVSNFNHRLLEMILNKPGLKYKPVCNQVECHPYFNQRKLLDFCKSKDIVLVAYSALGSHREEPWVDPNSPVLLEDPVLCALAKKHKRTPALIALRYQLQRGVVVLAKSYNEQRIRQNVQVFEFQLTSEEMKAIDGLNRNVRYLTLDIFAGPPNYPFSDEY

> <PDB ID(s) of Target Chain>
1IHI,1J96,1XJB,2HDJ,4JQ1,4JQ2,4JQ3,4JQ4,4JQA,4JTQ,4JTR,4L1W,4XO6,4XO7,6F2U

> <UniProt (SwissProt) Recommended Name of Target Chain>
Aldo-keto reductase family 1 member C2

> <UniProt (SwissProt) Entry Name of Target Chain>
AK1C2_HUMAN

> <UniProt (SwissProt) Primary ID of Target Chain>
P52895

> <UniProt (SwissProt) Secondary ID(s) of Target Chain>
A8K2N9,B4DKR9,Q14133,Q5SR16,Q7M4N1,Q96A71

> <UniProt (SwissProt) Alternative ID(s) of Target Chain>


> <UniProt (TrEMBL) Submitted Name of Target Chain>


> <UniProt (TrEMBL) Entry Name of Target Chain>


> <UniProt (TrEMBL) Primary ID of Target Chain>


> <UniProt (TrEMBL) Secondary ID(s) of Target Chain>


> <UniProt (TrEMBL) Alternative ID(s) of Target Chain>


$$$$
BindingDB_50385732_mol_1

Vconf v2.0 Academic SN VC001-00000579
 37 38  0  0  0  0  0  0  0  0999 V2000
    7.5390   -7.5780    0.5820 C   0  0  0  0  0  0  0  0  0  0  0
    7.3690   -8.9500    0.3150 C   0  0  0  0  0  0  0  0  0  0  0
    8.2360   -9.9030    0.8660 C   0  0  0  0  0  0  0  0  0  0  0
    9.3110   -9.5220    1.7030 C   0  0  0  0  0  0  0  0  0  0  0
    9.5030   -8.1390    1.9810 C   0  0  0  0  0  0  0  0  0  0  0
    8.6100   -7.1960    1.4180 C   0  0  0  0  0  0  0  0  0  0  0
   10.5580   -7.6460    2.7950 C   0  0  0  0  0  0  0  0  0  0  0
   10.7120   -6.3230    3.0290 O   0  0  0  0  0  0  0  0  0  0  0
   11.4090   -8.3880    3.3340 O   0  0  0  0  0  0  0  0  0  0  0
   10.1510  -10.4550    2.2520 N   0  0  0  0  0  0  0  0  0  0  0
   10.1350  -11.7980    2.0600 C   0  0  0  0  0  0  0  0  0  0  0
    9.8880  -12.6440    3.1550 C   0  0  0  0  0  0  0  0  0  0  0
    9.8930  -14.0370    2.9840 C   0  0  0  0  0  0  0  0  0  0  0
   10.1540  -14.5880    1.7190 C   0  0  0  0  0  0  0  0  0  0  0
   10.4190  -13.7620    0.6020 C   0  0  0  0  0  0  0  0  0  0  0
   10.4120  -12.3610    0.7970 C   0  0  0  0  0  0  0  0  0  0  0
    6.6530   -6.6200    0.0240 C   0  0  0  0  0  0  0  0  0  0  0
    5.7100   -6.9830   -0.7170 O   0  0  0  0  0  0  0  0  0  0  0
    6.7760   -5.1760    0.2760 C   0  0  0  0  0  0  0  0  0  0  0
   10.6810  -14.3200   -0.6460 C   0  0  0  0  0  0  0  0  0  0  0
   10.6290  -15.5310   -0.8090 O   0  0  0  0  0  0  0  0  0  0  0
   11.0310  -13.5320   -1.8040 C   0  0  0  0  0  0  0  0  0  0  0
    6.6060   -9.2700   -0.2840 H   0  0  0  0  0  0  0  0  0  0  0
    8.0680  -10.8860    0.6540 H   0  0  0  0  0  0  0  0  0  0  0
    8.7450   -6.2040    1.6210 H   0  0  0  0  0  0  0  0  0  0  0
   11.4840   -6.1120    3.5940 H   0  0  0  0  0  0  0  0  0  0  0
   10.8260  -10.1310    2.8670 H   0  0  0  0  0  0  0  0  0  0  0
    9.7020  -12.2480    4.0780 H   0  0  0  0  0  0  0  0  0  0  0
    9.7100  -14.6490    3.7790 H   0  0  0  0  0  0  0  0  0  0  0
   10.1520  -15.6040    1.6150 H   0  0  0  0  0  0  0  0  0  0  0
   10.6070  -11.7330    0.0160 H   0  0  0  0  0  0  0  0  0  0  0
    5.9880   -4.6380   -0.2530 H   0  0  0  0  0  0  0  0  0  0  0
    6.6800   -4.9780    1.3440 H   0  0  0  0  0  0  0  0  0  0  0
    7.7440   -4.8190   -0.0760 H   0  0  0  0  0  0  0  0  0  0  0
   11.2060  -14.1810   -2.6630 H   0  0  0  0  0  0  0  0  0  0  0
   10.2190  -12.8450   -2.0470 H   0  0  0  0  0  0  0  0  0  0  0
   11.9410  -12.9640   -1.6040 H   0  0  0  0  0  0  0  0  0  0  0
  1  2  2  0  0  0  0
  1  6  1  0  0  0  0
  1 17  1  0  0  0  0
  2  3  1  0  0  0  0
  2 23  1  0  0  0  0
  3  4  2  0  0  0  0
  3 24  1  0  0  0  0
  4  5  1  0  0  0  0
  4 10  1  0  0  0  0
  5  6  2  0  0  0  0
  5  7  1  0  0  0  0
  6 25  1  0  0  0  0
  7  8  1  0  0  0  0
  7  9  2  0  0  0  0
  8 26  1  0  0  0  0
 10 11  1  0  0  0  0
 10 27  1  0  0  0  0
 11 12  2  0  0  0  0
 11 16  1  0  0  0  0
 12 13  1  0  0  0  0
 12 28  1  0  0  0  0
 13 14  2  0  0  0  0
 13 29  1  0  0  0  0
 14 15  1  0  0  0  0
 14 30  1  0  0  0  0
 15 16  2  0  0  0  0
 15 20  1  0  0  0  0
 16 31  1  0  0  0  0
 17 18  2  0  0  0  0
 17 19  1  0  0  0  0
 19 32  1  0  0  0  0
 19 33  1  0  0  0  0
 19 34  1  0  0  0  0
 20 21  2  0  0  0  0
 20 22  1  0  0  0  0
 22 35  1  0  0  0  0
 22 36  1  0  0  0  0
 22 37  1  0  0  0  0
M  END
> <From>
www.bindingDB.org

> <BindingDB Reactant_set_id>
50940618

> <Ligand InChI>
InChI=1S/C17H15NO4/c1-10(19)12-4-3-5-14(8-12)18-16-7-6-13(11(2)20)9-15(16)17(21)22/h3-9,18H,1-2H3,(H,21,22)

> <Ligand InChI Key>
XLDOWLBJUYHPKG-UHFFFAOYSA-N

> <BindingDB MonomerID>
50385732

> <BindingDB Ligand Name>
CHEMBL2040993

> <Target Name Assigned by Curator or DataSource>
Aldo-keto reductase family 1 member C2

> <Target Source Organism According to Curator or DataSource>
Homo sapiens

> <Ki (nM)>


> <IC50 (nM)>
 1880

> <Kd (nM)>


> <EC50 (nM)>


> <kon (M-1-s-1)>


> <koff (s-1)>


> <pH>


> <Temp C>


> <Curation/DataSource>
ChEMBL

> <Article DOI>
10.1021/jm201547v

> <PMID>
22263837

> <PubChem AID>


> <Patent Number>


> <Authors>
Adeniji, AO; Twenter, BM; Byrns, MC; Jin, Y; Chen, M; Winkler, JD; Penning, TM

> <Institution>
University of Pennsylvania

> <Link to Ligand in BindingDB>
http://www.bindingdb.org/bind/chemsearch/marvin/MolStructure.jsp?monomerid=50385732

> <Link to Ligand-Target Pair in BindingDB>
http://www.bindingdb.org/jsp/dbsearch/PrimarySearch_ki.jsp?energyterm=kJ/mole&tag=pol&polymerid=3022&target=Aldo-keto+reductase+family+1+member+C2&column=ki&startPg=0&Increment=50&submit=Search

> <Link to Ligand-Target Pair in BindingDB>
http://www.bindingdb.org/jsp/dbsearch/PrimarySearch_ki.jsp?energyterm=kJ/mole&tag=r21&monomerid=50385732&enzyme=Aldo-keto+reductase+family+1+member+C2&column=ki&startPg=0&Increment=50&submit=Search

> <Ligand HET ID in PDB>


> <PDB ID(s) for Ligand-Target Complex>


> <PubChem CID>
70692398

> <PubChem SID>
160864815

> <ChEBI ID of Ligand>


> <ChEMBL ID of Ligand>
CHEMBL2040993

> <DrugBank ID of Ligand>


> <IUPHAR_GRAC ID of Ligand>


> <KEGG ID of Ligand>


> <ZINC ID of Ligand>
ZINC84705376

> <Number of Protein Chains in Target (>1 implies a multichain complex)>
1

> <BindingDB Target Chain Sequence>
MDSKYQCVKLNDGHFMPVLGFGTYAPAEVPKSKALEAVKLAIEAGFHHIDSAHVYNNEEQVGLAIRSKIADGSVKREDIFYTSKLWSNSHRPELVRPALERSLKNLQLDYVDLYLIHFPVSVKPGEEVIPKDENGKILFDTVDLCATWEAMEKCKDAGLAKSIGVSNFNHRLLEMILNKPGLKYKPVCNQVECHPYFNQRKLLDFCKSKDIVLVAYSALGSHREEPWVDPNSPVLLEDPVLCALAKKHKRTPALIALRYQLQRGVVVLAKSYNEQRIRQNVQVFEFQLTSEEMKAIDGLNRNVRYLTLDIFAGPPNYPFSDEY

> <PDB ID(s) of Target Chain>
1IHI,1J96,1XJB,2HDJ,4JQ1,4JQ2,4JQ3,4JQ4,4JQA,4JTQ,4JTR,4L1W,4XO6,4XO7,6F2U

> <UniProt (SwissProt) Recommended Name of Target Chain>
Aldo-keto reductase family 1 member C2

> <UniProt (SwissProt) Entry Name of Target Chain>
AK1C2_HUMAN

> <UniProt (SwissProt) Primary ID of Target Chain>
P52895

> <UniProt (SwissProt) Secondary ID(s) of Target Chain>
A8K2N9,B4DKR9,Q14133,Q5SR16,Q7M4N1,Q96A71

> <UniProt (SwissProt) Alternative ID(s) of Target Chain>


> <UniProt (TrEMBL) Submitted Name of Target Chain>


> <UniProt (TrEMBL) Entry Name of Target Chain>


> <UniProt (TrEMBL) Primary ID of Target Chain>


> <UniProt (TrEMBL) Secondary ID(s) of Target Chain>


> <UniProt (TrEMBL) Alternative ID(s) of Target Chain>


$$$$
BindingDB_50385734_mol_1

Vconf v2.0 Academic SN VC001-00000579
 35 36  0  0  0  0  0  0  0  0999 V2000
   24.4930   -7.6120    0.6370 C   0  0  0  0  0  0  0  0  0  0  0
   24.5700   -8.8380   -0.0520 C   0  0  0  0  0  0  0  0  0  0  0
   25.6340   -9.7220    0.1720 C   0  0  0  0  0  0  0  0  0  0  0
   26.6630   -9.4150    1.0920 C   0  0  0  0  0  0  0  0  0  0  0
   26.6070   -8.1790    1.7950 C   0  0  0  0  0  0  0  0  0  0  0
   25.5220   -7.3030    1.5530 C   0  0  0  0  0  0  0  0  0  0  0
   27.5910   -7.7720    2.7360 C   0  0  0  0  0  0  0  0  0  0  0
   27.5010   -6.5890    3.3850 O   0  0  0  0  0  0  0  0  0  0  0
   28.5910   -8.4660    3.0230 O   0  0  0  0  0  0  0  0  0  0  0
   27.6970  -10.2860    1.3130 N   0  0  0  0  0  0  0  0  0  0  0
   27.8750  -11.4950    0.7260 C   0  0  0  0  0  0  0  0  0  0  0
   28.5520  -11.5950   -0.5030 C   0  0  0  0  0  0  0  0  0  0  0
   28.7430  -12.8510   -1.1020 C   0  0  0  0  0  0  0  0  0  0  0
   28.2620  -14.0110   -0.4700 C   0  0  0  0  0  0  0  0  0  0  0
   27.5890  -13.9230    0.7640 C   0  0  0  0  0  0  0  0  0  0  0
   27.4010  -12.6590    1.3600 C   0  0  0  0  0  0  0  0  0  0  0
   23.4090   -6.7250    0.4070 C   0  0  0  0  0  0  0  0  0  0  0
   22.5090   -7.0200   -0.4120 O   0  0  0  0  0  0  0  0  0  0  0
   23.2740   -5.4340    1.1000 C   0  0  0  0  0  0  0  0  0  0  0
   27.0940  -15.1470    1.4120 C   0  0  0  0  0  0  0  0  0  0  0
   23.8470   -9.0990   -0.7240 H   0  0  0  0  0  0  0  0  0  0  0
   25.6490  -10.6010   -0.3450 H   0  0  0  0  0  0  0  0  0  0  0
   25.4790   -6.4160    2.0600 H   0  0  0  0  0  0  0  0  0  0  0
   28.2410   -6.4260    4.0060 H   0  0  0  0  0  0  0  0  0  0  0
   28.3690  -10.0260    1.9590 H   0  0  0  0  0  0  0  0  0  0  0
   28.9040  -10.7550   -0.9640 H   0  0  0  0  0  0  0  0  0  0  0
   29.2320  -12.9220   -1.9940 H   0  0  0  0  0  0  0  0  0  0  0
   28.4030  -14.9210   -0.9110 H   0  0  0  0  0  0  0  0  0  0  0
   26.9160  -12.5860    2.2550 H   0  0  0  0  0  0  0  0  0  0  0
   22.3710   -4.9240    0.7620 H   0  0  0  0  0  0  0  0  0  0  0
   23.2040   -5.5970    2.1760 H   0  0  0  0  0  0  0  0  0  0  0
   24.1360   -4.8040    0.8820 H   0  0  0  0  0  0  0  0  0  0  0
   26.6010  -14.9210    2.3590 H   0  0  0  0  0  0  0  0  0  0  0
   26.3780  -15.6440    0.7550 H   0  0  0  0  0  0  0  0  0  0  0
   27.9290  -15.8220    1.6050 H   0  0  0  0  0  0  0  0  0  0  0
  1  2  2  0  0  0  0
  1  6  1  0  0  0  0
  1 17  1  0  0  0  0
  2  3  1  0  0  0  0
  2 21  1  0  0  0  0
  3  4  2  0  0  0  0
  3 22  1  0  0  0  0
  4  5  1  0  0  0  0
  4 10  1  0  0  0  0
  5  6  2  0  0  0  0
  5  7  1  0  0  0  0
  6 23  1  0  0  0  0
  7  8  1  0  0  0  0
  7  9  2  0  0  0  0
  8 24  1  0  0  0  0
 10 11  1  0  0  0  0
 10 25  1  0  0  0  0
 11 12  2  0  0  0  0
 11 16  1  0  0  0  0
 12 13  1  0  0  0  0
 12 26  1  0  0  0  0
 13 14  2  0  0  0  0
 13 27  1  0  0  0  0
 14 15  1  0  0  0  0
 14 28  1  0  0  0  0
 15 16  2  0  0  0  0
 15 20  1  0  0  0  0
 16 29  1  0  0  0  0
 17 18  2  0  0  0  0
 17 19  1  0  0  0  0
 19 30  1  0  0  0  0
 19 31  1  0  0  0  0
 19 32  1  0  0  0  0
 20 33  1  0  0  0  0
 20 34  1  0  0  0  0
 20 35  1  0  0  0  0
M  END
> <From>
www.bindingDB.org

> <BindingDB Reactant_set_id>
50940621

> <Ligand InChI>
InChI=1S/C16H15NO3/c1-10-4-3-5-13(8-10)17-15-7-6-12(11(2)18)9-14(15)16(19)20/h3-9,17H,1-2H3,(H,19,20)

> <Ligand InChI Key>
ROJYJYUSWINRTG-UHFFFAOYSA-N

> <BindingDB MonomerID>
50385734

> <BindingDB Ligand Name>
CHEMBL2040996

> <Target Name Assigned by Curator or DataSource>
Aldo-keto reductase family 1 member C2

> <Target Source Organism According to Curator or DataSource>
Homo sapiens

> <Ki (nM)>


> <IC50 (nM)>
 2840

> <Kd (nM)>


> <EC50 (nM)>


> <kon (M-1-s-1)>


> <koff (s-1)>


> <pH>


> <Temp C>


> <Curation/DataSource>
ChEMBL

> <Article DOI>
10.1021/jm201547v

> <PMID>
22263837

> <PubChem AID>


> <Patent Number>


> <Authors>
Adeniji, AO; Twenter, BM; Byrns, MC; Jin, Y; Chen, M; Winkler, JD; Penning, TM

> <Institution>
University of Pennsylvania

> <Link to Ligand in BindingDB>
http://www.bindingdb.org/bind/chemsearch/marvin/MolStructure.jsp?monomerid=50385734

> <Link to Ligand-Target Pair in BindingDB>
http://www.bindingdb.org/jsp/dbsearch/PrimarySearch_ki.jsp?energyterm=kJ/mole&tag=pol&polymerid=3022&target=Aldo-keto+reductase+family+1+member+C2&column=ki&startPg=0&Increment=50&submit=Search

> <Link to Ligand-Target Pair in BindingDB>
http://www.bindingdb.org/jsp/dbsearch/PrimarySearch_ki.jsp?energyterm=kJ/mole&tag=r21&monomerid=50385734&enzyme=Aldo-keto+reductase+family+1+member+C2&column=ki&startPg=0&Increment=50&submit=Search

> <Ligand HET ID in PDB>


> <PDB ID(s) for Ligand-Target Complex>


> <PubChem CID>
70688204

> <PubChem SID>
160864817

> <ChEBI ID of Ligand>


> <ChEMBL ID of Ligand>
CHEMBL2040996

> <DrugBank ID of Ligand>


> <IUPHAR_GRAC ID of Ligand>


> <KEGG ID of Ligand>


> <ZINC ID of Ligand>
ZINC84705381

> <Number of Protein Chains in Target (>1 implies a multichain complex)>
1

> <BindingDB Target Chain Sequence>
MDSKYQCVKLNDGHFMPVLGFGTYAPAEVPKSKALEAVKLAIEAGFHHIDSAHVYNNEEQVGLAIRSKIADGSVKREDIFYTSKLWSNSHRPELVRPALERSLKNLQLDYVDLYLIHFPVSVKPGEEVIPKDENGKILFDTVDLCATWEAMEKCKDAGLAKSIGVSNFNHRLLEMILNKPGLKYKPVCNQVECHPYFNQRKLLDFCKSKDIVLVAYSALGSHREEPWVDPNSPVLLEDPVLCALAKKHKRTPALIALRYQLQRGVVVLAKSYNEQRIRQNVQVFEFQLTSEEMKAIDGLNRNVRYLTLDIFAGPPNYPFSDEY

> <PDB ID(s) of Target Chain>
1IHI,1J96,1XJB,2HDJ,4JQ1,4JQ2,4JQ3,4JQ4,4JQA,4JTQ,4JTR,4L1W,4XO6,4XO7,6F2U

> <UniProt (SwissProt) Recommended Name of Target Chain>
Aldo-keto reductase family 1 member C2

> <UniProt (SwissProt) Entry Name of Target Chain>
AK1C2_HUMAN

> <UniProt (SwissProt) Primary ID of Target Chain>
P52895

> <UniProt (SwissProt) Secondary ID(s) of Target Chain>
A8K2N9,B4DKR9,Q14133,Q5SR16,Q7M4N1,Q96A71

> <UniProt (SwissProt) Alternative ID(s) of Target Chain>


> <UniProt (TrEMBL) Submitted Name of Target Chain>


> <UniProt (TrEMBL) Entry Name of Target Chain>


> <UniProt (TrEMBL) Primary ID of Target Chain>


> <UniProt (TrEMBL) Secondary ID(s) of Target Chain>


> <UniProt (TrEMBL) Alternative ID(s) of Target Chain>


$$$$
BindingDB_50385735_mol_1

Vconf v2.0 Academic SN VC001-00000579
 34 35  0  0  0  0  0  0  0  0999 V2000
   31.1210   -6.9490    0.5790 C   0  0  0  0  0  0  0  0  0  0  0
   30.7830   -8.3090    0.4450 C   0  0  0  0  0  0  0  0  0  0  0
   31.6150   -9.3100    0.9630 C   0  0  0  0  0  0  0  0  0  0  0
   32.8080   -8.9990    1.6530 C   0  0  0  0  0  0  0  0  0  0  0
   33.1830   -7.6280    1.7680 C   0  0  0  0  0  0  0  0  0  0  0
   32.3280   -6.6330    1.2360 C   0  0  0  0  0  0  0  0  0  0  0
   34.3720   -7.1910    2.4140 C   0  0  0  0  0  0  0  0  0  0  0
   34.6880   -5.8780    2.5030 O   0  0  0  0  0  0  0  0  0  0  0
   35.1940   -7.9730    2.9400 O   0  0  0  0  0  0  0  0  0  0  0
   33.6490   -9.9630    2.1510 N   0  0  0  0  0  0  0  0  0  0  0
   33.4800  -11.2900    2.4320 C   0  0  0  0  0  0  0  0  0  0  0
   32.2530  -11.9820    2.5430 C   0  0  0  0  0  0  0  0  0  0  0
   32.2230  -13.3520    2.8540 C   0  0  0  0  0  0  0  0  0  0  0
   33.4140  -14.0740    3.0830 C   0  0  0  0  0  0  0  0  0  0  0
   34.6370  -13.3730    3.0050 C   0  0  0  0  0  0  0  0  0  0  0
   34.6660  -12.0030    2.6950 C   0  0  0  0  0  0  0  0  0  0  0
   30.2840   -5.9250    0.0630 C   0  0  0  0  0  0  0  0  0  0  0
   30.6020   -4.7200    0.1920 O   0  0  0  0  0  0  0  0  0  0  0
   29.0200   -6.2040   -0.6350 C   0  0  0  0  0  0  0  0  0  0  0
   33.3830  -15.4080    3.3830 N   0  3  0  0  0  0  0  0  0  0  0
   34.3880  -16.0380    3.5870 O   0  0  0  0  0  0  0  0  0  0  0
   32.3470  -16.0210    3.4580 O   0  5  0  0  0  0  0  0  0  0  0
   29.9310   -8.5870   -0.0450 H   0  0  0  0  0  0  0  0  0  0  0
   31.3550  -10.2750    0.7800 H   0  0  0  0  0  0  0  0  0  0  0
   32.5890   -5.6480    1.3290 H   0  0  0  0  0  0  0  0  0  0  0
   35.5300   -5.7080    2.9740 H   0  0  0  0  0  0  0  0  0  0  0
   34.5420   -9.6440    2.3500 H   0  0  0  0  0  0  0  0  0  0  0
   31.3650  -11.4950    2.4450 H   0  0  0  0  0  0  0  0  0  0  0
   31.3210  -13.8240    2.9250 H   0  0  0  0  0  0  0  0  0  0  0
   35.5160  -13.8620    3.1780 H   0  0  0  0  0  0  0  0  0  0  0
   35.5670  -11.5250    2.6490 H   0  0  0  0  0  0  0  0  0  0  0
   28.5460   -5.2680   -0.9340 H   0  0  0  0  0  0  0  0  0  0  0
   29.2140   -6.8010   -1.5270 H   0  0  0  0  0  0  0  0  0  0  0
   28.3430   -6.7450    0.0270 H   0  0  0  0  0  0  0  0  0  0  0
  1  2  2  0  0  0  0
  1  6  1  0  0  0  0
  1 17  1  0  0  0  0
  2  3  1  0  0  0  0
  2 23  1  0  0  0  0
  3  4  2  0  0  0  0
  3 24  1  0  0  0  0
  4  5  1  0  0  0  0
  4 10  1  0  0  0  0
  5  6  2  0  0  0  0
  5  7  1  0  0  0  0
  6 25  1  0  0  0  0
  7  8  1  0  0  0  0
  7  9  2  0  0  0  0
  8 26  1  0  0  0  0
 10 11  1  0  0  0  0
 10 27  1  0  0  0  0
 11 12  2  0  0  0  0
 11 16  1  0  0  0  0
 12 13  1  0  0  0  0
 12 28  1  0  0  0  0
 13 14  2  0  0  0  0
 13 29  1  0  0  0  0
 14 15  1  0  0  0  0
 14 20  1  0  0  0  0
 15 16  2  0  0  0  0
 15 30  1  0  0  0  0
 16 31  1  0  0  0  0
 17 18  2  0  0  0  0
 17 19  1  0  0  0  0
 19 32  1  0  0  0  0
 19 33  1  0  0  0  0
 19 34  1  0  0  0  0
 20 21  2  0  0  0  0
 20 22  1  0  0  0  0
M  CHG  1  20   1
M  CHG  1  22  -1
M  END
> <From>
www.bindingDB.org

> <BindingDB Reactant_set_id>
50940622

> <Ligand InChI>
InChI=1S/C15H12N2O5/c1-9(18)10-2-7-14(13(8-10)15(19)20)16-11-3-5-12(6-4-11)17(21)22/h2-8,16H,1H3,(H,19,20)

> <Ligand InChI Key>
MHYCNIXDQRQBPZ-UHFFFAOYSA-N

> <BindingDB MonomerID>
50385735

> <BindingDB Ligand Name>
CHEMBL2040997

> <Target Name Assigned by Curator or DataSource>
Aldo-keto reductase family 1 member C2

> <Target Source Organism According to Curator or DataSource>
Homo sapiens

> <Ki (nM)>


> <IC50 (nM)>
 1330

> <Kd (nM)>


> <EC50 (nM)>


> <kon (M-1-s-1)>


> <koff (s-1)>


> <pH>


> <Temp C>


> <Curation/DataSource>
ChEMBL

> <Article DOI>
10.1021/jm201547v

> <PMID>
22263837

> <PubChem AID>


> <Patent Number>


> <Authors>
Adeniji, AO; Twenter, BM; Byrns, MC; Jin, Y; Chen, M; Winkler, JD; Penning, TM

> <Institution>
University of Pennsylvania

> <Link to Ligand in BindingDB>
http://www.bindingdb.org/bind/chemsearch/marvin/MolStructure.jsp?monomerid=50385735

> <Link to Ligand-Target Pair in BindingDB>
http://www.bindingdb.org/jsp/dbsearch/PrimarySearch_ki.jsp?energyterm=kJ/mole&tag=pol&polymerid=3022&target=Aldo-keto+reductase+family+1+member+C2&column=ki&startPg=0&Increment=50&submit=Search

> <Link to Ligand-Target Pair in BindingDB>
http://www.bindingdb.org/jsp/dbsearch/PrimarySearch_ki.jsp?energyterm=kJ/mole&tag=r21&monomerid=50385735&enzyme=Aldo-keto+reductase+family+1+member+C2&column=ki&startPg=0&Increment=50&submit=Search

> <Ligand HET ID in PDB>


> <PDB ID(s) for Ligand-Target Complex>


> <PubChem CID>
70692399

> <PubChem SID>
160864818

> <ChEBI ID of Ligand>


> <ChEMBL ID of Ligand>
CHEMBL2040997

> <DrugBank ID of Ligand>


> <IUPHAR_GRAC ID of Ligand>


> <KEGG ID of Ligand>


> <ZINC ID of Ligand>
ZINC84712667

> <Number of Protein Chains in Target (>1 implies a multichain complex)>
1

> <BindingDB Target Chain Sequence>
MDSKYQCVKLNDGHFMPVLGFGTYAPAEVPKSKALEAVKLAIEAGFHHIDSAHVYNNEEQVGLAIRSKIADGSVKREDIFYTSKLWSNSHRPELVRPALERSLKNLQLDYVDLYLIHFPVSVKPGEEVIPKDENGKILFDTVDLCATWEAMEKCKDAGLAKSIGVSNFNHRLLEMILNKPGLKYKPVCNQVECHPYFNQRKLLDFCKSKDIVLVAYSALGSHREEPWVDPNSPVLLEDPVLCALAKKHKRTPALIALRYQLQRGVVVLAKSYNEQRIRQNVQVFEFQLTSEEMKAIDGLNRNVRYLTLDIFAGPPNYPFSDEY

> <PDB ID(s) of Target Chain>
1IHI,1J96,1XJB,2HDJ,4JQ1,4JQ2,4JQ3,4JQ4,4JQA,4JTQ,4JTR,4L1W,4XO6,4XO7,6F2U

> <UniProt (SwissProt) Recommended Name of Target Chain>
Aldo-keto reductase family 1 member C2

> <UniProt (SwissProt) Entry Name of Target Chain>
AK1C2_HUMAN

> <UniProt (SwissProt) Primary ID of Target Chain>
P52895

> <UniProt (SwissProt) Secondary ID(s) of Target Chain>
A8K2N9,B4DKR9,Q14133,Q5SR16,Q7M4N1,Q96A71

> <UniProt (SwissProt) Alternative ID(s) of Target Chain>


> <UniProt (TrEMBL) Submitted Name of Target Chain>


> <UniProt (TrEMBL) Entry Name of Target Chain>


> <UniProt (TrEMBL) Primary ID of Target Chain>


> <UniProt (TrEMBL) Secondary ID(s) of Target Chain>


> <UniProt (TrEMBL) Alternative ID(s) of Target Chain>


$$$$
BindingDB_50385736_mol_1

Vconf v2.0 Academic SN VC001-00000579
 37 38  0  0  0  0  0  0  0  0999 V2000
    2.4280  -12.9750    0.7780 C   0  0  0  0  0  0  0  0  0  0  0
    2.0380  -14.3210    0.6560 C   0  0  0  0  0  0  0  0  0  0  0
    2.8680  -15.3540    1.1120 C   0  0  0  0  0  0  0  0  0  0  0
    4.1100  -15.0880    1.7310 C   0  0  0  0  0  0  0  0  0  0  0
    4.5350  -13.7310    1.8340 C   0  0  0  0  0  0  0  0  0  0  0
    3.6830  -12.7040    1.3620 C   0  0  0  0  0  0  0  0  0  0  0
    5.7750  -13.3380    2.4090 C   0  0  0  0  0  0  0  0  0  0  0
    6.1370  -12.0370    2.4900 O   0  0  0  0  0  0  0  0  0  0  0
    6.6030  -14.1500    2.8770 O   0  0  0  0  0  0  0  0  0  0  0
    4.9480  -16.0830    2.1680 N   0  0  0  0  0  0  0  0  0  0  0
    4.7530  -17.4080    2.4450 C   0  0  0  0  0  0  0  0  0  0  0
    3.5140  -18.0630    2.6230 C   0  0  0  0  0  0  0  0  0  0  0
    3.4590  -19.4350    2.9220 C   0  0  0  0  0  0  0  0  0  0  0
    4.6390  -20.1960    3.0710 C   0  0  0  0  0  0  0  0  0  0  0
    5.8770  -19.5320    2.9260 C   0  0  0  0  0  0  0  0  0  0  0
    5.9290  -18.1610    2.6270 C   0  0  0  0  0  0  0  0  0  0  0
    1.5820  -11.9340    0.3140 C   0  0  0  0  0  0  0  0  0  0  0
    0.4720  -12.2000   -0.2040 O   0  0  0  0  0  0  0  0  0  0  0
    1.9430  -10.5120    0.4070 C   0  0  0  0  0  0  0  0  0  0  0
    4.5940  -21.5820    3.3680 C   0  0  0  0  0  0  0  0  0  0  0
    3.3340  -22.3220    3.5300 C   0  0  0  0  0  0  0  0  0  0  0
    5.6530  -22.2380    3.5040 O   0  0  0  0  0  0  0  0  0  0  0
    1.1480  -14.5640    0.2180 H   0  0  0  0  0  0  0  0  0  0  0
    2.5660  -16.3090    0.9360 H   0  0  0  0  0  0  0  0  0  0  0
    3.9840  -11.7310    1.4470 H   0  0  0  0  0  0  0  0  0  0  0
    7.0110  -11.8980    2.9100 H   0  0  0  0  0  0  0  0  0  0  0
    5.8610  -15.7950    2.3150 H   0  0  0  0  0  0  0  0  0  0  0
    2.6390  -17.5480    2.5830 H   0  0  0  0  0  0  0  0  0  0  0
    2.5430  -19.8700    3.0410 H   0  0  0  0  0  0  0  0  0  0  0
    6.7530  -20.0440    3.0370 H   0  0  0  0  0  0  0  0  0  0  0
    6.8410  -17.7110    2.5300 H   0  0  0  0  0  0  0  0  0  0  0
    1.1440   -9.8970   -0.0100 H   0  0  0  0  0  0  0  0  0  0  0
    2.0900  -10.2340    1.4510 H   0  0  0  0  0  0  0  0  0  0  0
    2.8590  -10.3240   -0.1540 H   0  0  0  0  0  0  0  0  0  0  0
    3.5430  -23.3690    3.7510 H   0  0  0  0  0  0  0  0  0  0  0
    2.7580  -21.8960    4.3520 H   0  0  0  0  0  0  0  0  0  0  0
    2.7520  -22.2670    2.6090 H   0  0  0  0  0  0  0  0  0  0  0
  1  2  2  0  0  0  0
  1  6  1  0  0  0  0
  1 17  1  0  0  0  0
  2  3  1  0  0  0  0
  2 23  1  0  0  0  0
  3  4  2  0  0  0  0
  3 24  1  0  0  0  0
  4  5  1  0  0  0  0
  4 10  1  0  0  0  0
  5  6  2  0  0  0  0
  5  7  1  0  0  0  0
  6 25  1  0  0  0  0
  7  8  1  0  0  0  0
  7  9  2  0  0  0  0
  8 26  1  0  0  0  0
 10 11  1  0  0  0  0
 10 27  1  0  0  0  0
 11 12  2  0  0  0  0
 11 16  1  0  0  0  0
 12 13  1  0  0  0  0
 12 28  1  0  0  0  0
 13 14  2  0  0  0  0
 13 29  1  0  0  0  0
 14 15  1  0  0  0  0
 14 20  1  0  0  0  0
 15 16  2  0  0  0  0
 15 30  1  0  0  0  0
 16 31  1  0  0  0  0
 17 18  2  0  0  0  0
 17 19  1  0  0  0  0
 19 32  1  0  0  0  0
 19 33  1  0  0  0  0
 19 34  1  0  0  0  0
 20 21  1  0  0  0  0
 20 22  2  0  0  0  0
 21 35  1  0  0  0  0
 21 36  1  0  0  0  0
 21 37  1  0  0  0  0
M  END
> <From>
www.bindingDB.org

> <BindingDB Reactant_set_id>
50940623

> <Ligand InChI>
InChI=1S/C17H15NO4/c1-10(19)12-3-6-14(7-4-12)18-16-8-5-13(11(2)20)9-15(16)17(21)22/h3-9,18H,1-2H3,(H,21,22)

> <Ligand InChI Key>
LETHEYUGXNLIES-UHFFFAOYSA-N

> <BindingDB MonomerID>
50385736

> <BindingDB Ligand Name>
CHEMBL2040998

> <Target Name Assigned by Curator or DataSource>
Aldo-keto reductase family 1 member C2

> <Target Source Organism According to Curator or DataSource>
Homo sapiens

> <Ki (nM)>


> <IC50 (nM)>
 18700

> <Kd (nM)>


> <EC50 (nM)>


> <kon (M-1-s-1)>


> <koff (s-1)>


> <pH>


> <Temp C>


> <Curation/DataSource>
ChEMBL

> <Article DOI>
10.1021/jm201547v

> <PMID>
22263837

> <PubChem AID>


> <Patent Number>


> <Authors>
Adeniji, AO; Twenter, BM; Byrns, MC; Jin, Y; Chen, M; Winkler, JD; Penning, TM

> <Institution>
University of Pennsylvania

> <Link to Ligand in BindingDB>
http://www.bindingdb.org/bind/chemsearch/marvin/MolStructure.jsp?monomerid=50385736

> <Link to Ligand-Target Pair in BindingDB>
http://www.bindingdb.org/jsp/dbsearch/PrimarySearch_ki.jsp?energyterm=kJ/mole&tag=pol&polymerid=3022&target=Aldo-keto+reductase+family+1+member+C2&column=ki&startPg=0&Increment=50&submit=Search

> <Link to Ligand-Target Pair in BindingDB>
http://www.bindingdb.org/jsp/dbsearch/PrimarySearch_ki.jsp?energyterm=kJ/mole&tag=r21&monomerid=50385736&enzyme=Aldo-keto+reductase+family+1+member+C2&column=ki&startPg=0&Increment=50&submit=Search

> <Ligand HET ID in PDB>


> <PDB ID(s) for Ligand-Target Complex>


> <PubChem CID>
70690226

> <PubChem SID>
160864819

> <ChEBI ID of Ligand>


> <ChEMBL ID of Ligand>
CHEMBL2040998

> <DrugBank ID of Ligand>


> <IUPHAR_GRAC ID of Ligand>


> <KEGG ID of Ligand>


> <ZINC ID of Ligand>
ZINC84705384

> <Number of Protein Chains in Target (>1 implies a multichain complex)>
1

> <BindingDB Target Chain Sequence>
MDSKYQCVKLNDGHFMPVLGFGTYAPAEVPKSKALEAVKLAIEAGFHHIDSAHVYNNEEQVGLAIRSKIADGSVKREDIFYTSKLWSNSHRPELVRPALERSLKNLQLDYVDLYLIHFPVSVKPGEEVIPKDENGKILFDTVDLCATWEAMEKCKDAGLAKSIGVSNFNHRLLEMILNKPGLKYKPVCNQVECHPYFNQRKLLDFCKSKDIVLVAYSALGSHREEPWVDPNSPVLLEDPVLCALAKKHKRTPALIALRYQLQRGVVVLAKSYNEQRIRQNVQVFEFQLTSEEMKAIDGLNRNVRYLTLDIFAGPPNYPFSDEY

> <PDB ID(s) of Target Chain>
1IHI,1J96,1XJB,2HDJ,4JQ1,4JQ2,4JQ3,4JQ4,4JQA,4JTQ,4JTR,4L1W,4XO6,4XO7,6F2U

> <UniProt (SwissProt) Recommended Name of Target Chain>
Aldo-keto reductase family 1 member C2

> <UniProt (SwissProt) Entry Name of Target Chain>
AK1C2_HUMAN

> <UniProt (SwissProt) Primary ID of Target Chain>
P52895

> <UniProt (SwissProt) Secondary ID(s) of Target Chain>
A8K2N9,B4DKR9,Q14133,Q5SR16,Q7M4N1,Q96A71

> <UniProt (SwissProt) Alternative ID(s) of Target Chain>


> <UniProt (TrEMBL) Submitted Name of Target Chain>


> <UniProt (TrEMBL) Entry Name of Target Chain>


> <UniProt (TrEMBL) Primary ID of Target Chain>


> <UniProt (TrEMBL) Secondary ID(s) of Target Chain>


> <UniProt (TrEMBL) Alternative ID(s) of Target Chain>


$$$$
BindingDB_50385741_mol_1

Vconf v2.0 Academic SN VC001-00000579
 44 45  0  0  0  0  0  0  0  0999 V2000
    2.8000  -20.1580    0.7240 C   0  0  0  0  0  0  0  0  0  0  0
    2.4990  -21.5240    0.5600 C   0  0  0  0  0  0  0  0  0  0  0
    3.3620  -22.5140    1.0490 C   0  0  0  0  0  0  0  0  0  0  0
    4.5580  -22.1770    1.7240 C   0  0  0  0  0  0  0  0  0  0  0
    4.8790  -20.8030    1.9050 C   0  0  0  0  0  0  0  0  0  0  0
    3.9920  -19.8210    1.4000 C   0  0  0  0  0  0  0  0  0  0  0
    6.0530  -20.3560    2.5690 C   0  0  0  0  0  0  0  0  0  0  0
    6.3250  -19.0400    2.7160 O   0  0  0  0  0  0  0  0  0  0  0
    6.9020  -21.1360    3.0540 O   0  0  0  0  0  0  0  0  0  0  0
    5.4050  -23.1480    2.1890 N   0  0  0  0  0  0  0  0  0  0  0
    5.2400  -24.4890    2.0810 C   0  0  0  0  0  0  0  0  0  0  0
    5.9430  -25.2000    1.0950 C   0  0  0  0  0  0  0  0  0  0  0
    5.7860  -26.5910    0.9830 C   0  0  0  0  0  0  0  0  0  0  0
    4.9340  -27.3070    1.8550 C   0  0  0  0  0  0  0  0  0  0  0
    4.2410  -26.5750    2.8480 C   0  0  0  0  0  0  0  0  0  0  0
    4.3930  -25.1830    2.9630 C   0  0  0  0  0  0  0  0  0  0  0
    1.9250  -19.1630    0.2170 C   0  0  0  0  0  0  0  0  0  0  0
    0.8730  -19.4860   -0.3830 O   0  0  0  0  0  0  0  0  0  0  0
    2.1890  -17.7230    0.3540 C   0  0  0  0  0  0  0  0  0  0  0
    4.7950  -28.7910    1.6990 C   0  0  0  0  0  0  0  0  0  0  0
    6.1670  -29.4810    1.8680 C   0  0  0  0  0  0  0  0  0  0  0
    3.8400  -29.4490    2.7240 C   0  0  0  0  0  0  0  0  0  0  0
    4.2400  -29.1330    0.2970 C   0  0  0  0  0  0  0  0  0  0  0
    1.6450  -21.8110    0.0780 H   0  0  0  0  0  0  0  0  0  0  0
    3.1080  -23.4910    0.9030 H   0  0  0  0  0  0  0  0  0  0  0
    4.2220  -18.8330    1.5270 H   0  0  0  0  0  0  0  0  0  0  0
    7.1640  -18.8650    3.1900 H   0  0  0  0  0  0  0  0  0  0  0
    6.2220  -22.8570    2.6200 H   0  0  0  0  0  0  0  0  0  0  0
    6.5660  -24.7070    0.4540 H   0  0  0  0  0  0  0  0  0  0  0
    6.3010  -27.0860    0.2560 H   0  0  0  0  0  0  0  0  0  0  0
    3.6180  -27.0490    3.4990 H   0  0  0  0  0  0  0  0  0  0  0
    3.8840  -24.6760    3.6890 H   0  0  0  0  0  0  0  0  0  0  0
    1.3850  -17.1500   -0.1100 H   0  0  0  0  0  0  0  0  0  0  0
    2.2480  -17.4560    1.4090 H   0  0  0  0  0  0  0  0  0  0  0
    3.1290  -17.4700   -0.1400 H   0  0  0  0  0  0  0  0  0  0  0
    6.0510  -30.5620    1.7810 H   0  0  0  0  0  0  0  0  0  0  0
    6.8660  -29.1490    1.1000 H   0  0  0  0  0  0  0  0  0  0  0
    6.5830  -29.2510    2.8510 H   0  0  0  0  0  0  0  0  0  0  0
    3.7940  -30.5250    2.5500 H   0  0  0  0  0  0  0  0  0  0  0
    4.1980  -29.2780    3.7400 H   0  0  0  0  0  0  0  0  0  0  0
    2.8330  -29.0400    2.6210 H   0  0  0  0  0  0  0  0  0  0  0
    4.1080  -30.2120    0.2050 H   0  0  0  0  0  0  0  0  0  0  0
    3.2730  -28.6480    0.1490 H   0  0  0  0  0  0  0  0  0  0  0
    4.9270  -28.8030   -0.4820 H   0  0  0  0  0  0  0  0  0  0  0
  1  2  2  0  0  0  0
  1  6  1  0  0  0  0
  1 17  1  0  0  0  0
  2  3  1  0  0  0  0
  2 24  1  0  0  0  0
  3  4  2  0  0  0  0
  3 25  1  0  0  0  0
  4  5  1  0  0  0  0
  4 10  1  0  0  0  0
  5  6  2  0  0  0  0
  5  7  1  0  0  0  0
  6 26  1  0  0  0  0
  7  8  1  0  0  0  0
  7  9  2  0  0  0  0
  8 27  1  0  0  0  0
 10 11  1  0  0  0  0
 10 28  1  0  0  0  0
 11 12  2  0  0  0  0
 11 16  1  0  0  0  0
 12 13  1  0  0  0  0
 12 29  1  0  0  0  0
 13 14  2  0  0  0  0
 13 30  1  0  0  0  0
 14 15  1  0  0  0  0
 14 20  1  0  0  0  0
 15 16  2  0  0  0  0
 15 31  1  0  0  0  0
 16 32  1  0  0  0  0
 17 18  2  0  0  0  0
 17 19  1  0  0  0  0
 19 33  1  0  0  0  0
 19 34  1  0  0  0  0
 19 35  1  0  0  0  0
 20 21  1  0  0  0  0
 20 22  1  0  0  0  0
 20 23  1  0  0  0  0
 21 36  1  0  0  0  0
 21 37  1  0  0  0  0
 21 38  1  0  0  0  0
 22 39  1  0  0  0  0
 22 40  1  0  0  0  0
 22 41  1  0  0  0  0
 23 42  1  0  0  0  0
 23 43  1  0  0  0  0
 23 44  1  0  0  0  0
M  END
> <From>
www.bindingDB.org

> <BindingDB Reactant_set_id>
50940629

> <Ligand InChI>
InChI=1S/C19H21NO3/c1-12(21)13-5-10-17(16(11-13)18(22)23)20-15-8-6-14(7-9-15)19(2,3)4/h5-11,20H,1-4H3,(H,22,23)

> <Ligand InChI Key>
KQICQGCWWAJWIT-UHFFFAOYSA-N

> <BindingDB MonomerID>
50385741

> <BindingDB Ligand Name>
CHEMBL2041004

> <Target Name Assigned by Curator or DataSource>
Aldo-keto reductase family 1 member C2

> <Target Source Organism According to Curator or DataSource>
Homo sapiens

> <Ki (nM)>


> <IC50 (nM)>
 7050

> <Kd (nM)>


> <EC50 (nM)>


> <kon (M-1-s-1)>


> <koff (s-1)>


> <pH>


> <Temp C>


> <Curation/DataSource>
ChEMBL

> <Article DOI>
10.1021/jm201547v

> <PMID>
22263837

> <PubChem AID>


> <Patent Number>


> <Authors>
Adeniji, AO; Twenter, BM; Byrns, MC; Jin, Y; Chen, M; Winkler, JD; Penning, TM

> <Institution>
University of Pennsylvania

> <Link to Ligand in BindingDB>
http://www.bindingdb.org/bind/chemsearch/marvin/MolStructure.jsp?monomerid=50385741

> <Link to Ligand-Target Pair in BindingDB>
http://www.bindingdb.org/jsp/dbsearch/PrimarySearch_ki.jsp?energyterm=kJ/mole&tag=pol&polymerid=3022&target=Aldo-keto+reductase+family+1+member+C2&column=ki&startPg=0&Increment=50&submit=Search

> <Link to Ligand-Target Pair in BindingDB>
http://www.bindingdb.org/jsp/dbsearch/PrimarySearch_ki.jsp?energyterm=kJ/mole&tag=r21&monomerid=50385741&enzyme=Aldo-keto+reductase+family+1+member+C2&column=ki&startPg=0&Increment=50&submit=Search

> <Ligand HET ID in PDB>


> <PDB ID(s) for Ligand-Target Complex>


> <PubChem CID>
70690228

> <PubChem SID>
160864824

> <ChEBI ID of Ligand>


> <ChEMBL ID of Ligand>
CHEMBL2041004

> <DrugBank ID of Ligand>


> <IUPHAR_GRAC ID of Ligand>


> <KEGG ID of Ligand>


> <ZINC ID of Ligand>
ZINC84727861

> <Number of Protein Chains in Target (>1 implies a multichain complex)>
1

> <BindingDB Target Chain Sequence>
MDSKYQCVKLNDGHFMPVLGFGTYAPAEVPKSKALEAVKLAIEAGFHHIDSAHVYNNEEQVGLAIRSKIADGSVKREDIFYTSKLWSNSHRPELVRPALERSLKNLQLDYVDLYLIHFPVSVKPGEEVIPKDENGKILFDTVDLCATWEAMEKCKDAGLAKSIGVSNFNHRLLEMILNKPGLKYKPVCNQVECHPYFNQRKLLDFCKSKDIVLVAYSALGSHREEPWVDPNSPVLLEDPVLCALAKKHKRTPALIALRYQLQRGVVVLAKSYNEQRIRQNVQVFEFQLTSEEMKAIDGLNRNVRYLTLDIFAGPPNYPFSDEY

> <PDB ID(s) of Target Chain>
1IHI,1J96,1XJB,2HDJ,4JQ1,4JQ2,4JQ3,4JQ4,4JQA,4JTQ,4JTR,4L1W,4XO6,4XO7,6F2U

> <UniProt (SwissProt) Recommended Name of Target Chain>
Aldo-keto reductase family 1 member C2

> <UniProt (SwissProt) Entry Name of Target Chain>
AK1C2_HUMAN

> <UniProt (SwissProt) Primary ID of Target Chain>
P52895

> <UniProt (SwissProt) Secondary ID(s) of Target Chain>
A8K2N9,B4DKR9,Q14133,Q5SR16,Q7M4N1,Q96A71

> <UniProt (SwissProt) Alternative ID(s) of Target Chain>


> <UniProt (TrEMBL) Submitted Name of Target Chain>


> <UniProt (TrEMBL) Entry Name of Target Chain>


> <UniProt (TrEMBL) Primary ID of Target Chain>


> <UniProt (TrEMBL) Secondary ID(s) of Target Chain>


> <UniProt (TrEMBL) Alternative ID(s) of Target Chain>


$$$$
BindingDB_50385742_mol_1

Vconf v2.0 Academic SN VC001-00000579
 35 36  0  0  0  0  0  0  0  0999 V2000
    8.3970  -20.2480    0.7400 C   0  0  0  0  0  0  0  0  0  0  0
    8.0380  -21.6070    0.8100 C   0  0  0  0  0  0  0  0  0  0  0
    8.8810  -22.5430    1.4240 C   0  0  0  0  0  0  0  0  0  0  0
   10.1070  -22.1600    2.0140 C   0  0  0  0  0  0  0  0  0  0  0
   10.5020  -20.7930    1.9230 C   0  0  0  0  0  0  0  0  0  0  0
    9.6360  -19.8660    1.2950 C   0  0  0  0  0  0  0  0  0  0  0
   11.7230  -20.2910    2.4530 C   0  0  0  0  0  0  0  0  0  0  0
   12.0550  -18.9840    2.3490 O   0  0  0  0  0  0  0  0  0  0  0
   12.5590  -21.0070    3.0470 O   0  0  0  0  0  0  0  0  0  0  0
   10.9590  -23.0590    2.6040 N   0  0  0  0  0  0  0  0  0  0  0
   10.7890  -24.3330    3.0700 C   0  0  0  0  0  0  0  0  0  0  0
   11.9800  -25.0180    3.3830 C   0  0  0  0  0  0  0  0  0  0  0
   11.9550  -26.3300    3.8850 C   0  0  0  0  0  0  0  0  0  0  0
   10.7300  -26.9930    4.1060 C   0  0  0  0  0  0  0  0  0  0  0
    9.5340  -26.2990    3.8270 C   0  0  0  0  0  0  0  0  0  0  0
    9.5620  -24.9860    3.3270 C   0  0  0  0  0  0  0  0  0  0  0
    7.5360  -19.3050    0.1200 C   0  0  0  0  0  0  0  0  0  0  0
    6.4390  -19.6690   -0.3650 O   0  0  0  0  0  0  0  0  0  0  0
    7.8640  -17.8760    0.0110 C   0  0  0  0  0  0  0  0  0  0  0
   10.6950  -28.3130    4.6060 C   0  0  0  0  0  0  0  0  0  0  0
    9.5240  -28.9520    4.8240 O   0  0  0  0  0  0  0  0  0  0  0
   11.7420  -28.9470    4.8650 O   0  0  0  0  0  0  0  0  0  0  0
    7.1610  -21.9320    0.3990 H   0  0  0  0  0  0  0  0  0  0  0
    8.6030  -23.5190    1.3860 H   0  0  0  0  0  0  0  0  0  0  0
    9.9150  -18.8840    1.2410 H   0  0  0  0  0  0  0  0  0  0  0
   12.9170  -18.7660    2.7590 H   0  0  0  0  0  0  0  0  0  0  0
   11.8620  -22.7310    2.7210 H   0  0  0  0  0  0  0  0  0  0  0
   12.8820  -24.5620    3.2350 H   0  0  0  0  0  0  0  0  0  0  0
   12.8400  -26.7980    4.0880 H   0  0  0  0  0  0  0  0  0  0  0
    8.6290  -26.7410    3.9970 H   0  0  0  0  0  0  0  0  0  0  0
    8.6760  -24.5060    3.1950 H   0  0  0  0  0  0  0  0  0  0  0
    7.0570  -17.3460   -0.4960 H   0  0  0  0  0  0  0  0  0  0  0
    7.9950  -17.4480    1.0050 H   0  0  0  0  0  0  0  0  0  0  0
    8.7820  -17.7510   -0.5640 H   0  0  0  0  0  0  0  0  0  0  0
    9.6340  -29.8620    5.1690 H   0  0  0  0  0  0  0  0  0  0  0
  1  2  2  0  0  0  0
  1  6  1  0  0  0  0
  1 17  1  0  0  0  0
  2  3  1  0  0  0  0
  2 23  1  0  0  0  0
  3  4  2  0  0  0  0
  3 24  1  0  0  0  0
  4  5  1  0  0  0  0
  4 10  1  0  0  0  0
  5  6  2  0  0  0  0
  5  7  1  0  0  0  0
  6 25  1  0  0  0  0
  7  8  1  0  0  0  0
  7  9  2  0  0  0  0
  8 26  1  0  0  0  0
 10 11  1  0  0  0  0
 10 27  1  0  0  0  0
 11 12  2  0  0  0  0
 11 16  1  0  0  0  0
 12 13  1  0  0  0  0
 12 28  1  0  0  0  0
 13 14  2  0  0  0  0
 13 29  1  0  0  0  0
 14 15  1  0  0  0  0
 14 20  1  0  0  0  0
 15 16  2  0  0  0  0
 15 30  1  0  0  0  0
 16 31  1  0  0  0  0
 17 18  2  0  0  0  0
 17 19  1  0  0  0  0
 19 32  1  0  0  0  0
 19 33  1  0  0  0  0
 19 34  1  0  0  0  0
 20 21  1  0  0  0  0
 20 22  2  0  0  0  0
 21 35  1  0  0  0  0
M  END
> <From>
www.bindingDB.org

> <BindingDB Reactant_set_id>
50940630

> <Ligand InChI>
InChI=1S/C16H13NO5/c1-9(18)11-4-7-14(13(8-11)16(21)22)17-12-5-2-10(3-6-12)15(19)20/h2-8,17H,1H3,(H,19,20)(H,21,22)

> <Ligand InChI Key>
YCNOMSDXKNGNEI-UHFFFAOYSA-N

> <BindingDB MonomerID>
50385742

> <BindingDB Ligand Name>
CHEMBL2041005

> <Target Name Assigned by Curator or DataSource>
Aldo-keto reductase family 1 member C2

> <Target Source Organism According to Curator or DataSource>
Homo sapiens

> <Ki (nM)>


> <IC50 (nM)>
 18900

> <Kd (nM)>


> <EC50 (nM)>


> <kon (M-1-s-1)>


> <koff (s-1)>


> <pH>


> <Temp C>


> <Curation/DataSource>
ChEMBL

> <Article DOI>
10.1021/jm201547v

> <PMID>
22263837

> <PubChem AID>


> <Patent Number>


> <Authors>
Adeniji, AO; Twenter, BM; Byrns, MC; Jin, Y; Chen, M; Winkler, JD; Penning, TM

> <Institution>
University of Pennsylvania

> <Link to Ligand in BindingDB>
http://www.bindingdb.org/bind/chemsearch/marvin/MolStructure.jsp?monomerid=50385742

> <Link to Ligand-Target Pair in BindingDB>
http://www.bindingdb.org/jsp/dbsearch/PrimarySearch_ki.jsp?energyterm=kJ/mole&tag=pol&polymerid=3022&target=Aldo-keto+reductase+family+1+member+C2&column=ki&startPg=0&Increment=50&submit=Search

> <Link to Ligand-Target Pair in BindingDB>
http://www.bindingdb.org/jsp/dbsearch/PrimarySearch_ki.jsp?energyterm=kJ/mole&tag=r21&monomerid=50385742&enzyme=Aldo-keto+reductase+family+1+member+C2&column=ki&startPg=0&Increment=50&submit=Search

> <Ligand HET ID in PDB>


> <PDB ID(s) for Ligand-Target Complex>


> <PubChem CID>
70688205

> <PubChem SID>
160864825

> <ChEBI ID of Ligand>


> <ChEMBL ID of Ligand>
CHEMBL2041005

> <DrugBank ID of Ligand>


> <IUPHAR_GRAC ID of Ligand>


> <KEGG ID of Ligand>


> <ZINC ID of Ligand>
ZINC84723258

> <Number of Protein Chains in Target (>1 implies a multichain complex)>
1

> <BindingDB Target Chain Sequence>
MDSKYQCVKLNDGHFMPVLGFGTYAPAEVPKSKALEAVKLAIEAGFHHIDSAHVYNNEEQVGLAIRSKIADGSVKREDIFYTSKLWSNSHRPELVRPALERSLKNLQLDYVDLYLIHFPVSVKPGEEVIPKDENGKILFDTVDLCATWEAMEKCKDAGLAKSIGVSNFNHRLLEMILNKPGLKYKPVCNQVECHPYFNQRKLLDFCKSKDIVLVAYSALGSHREEPWVDPNSPVLLEDPVLCALAKKHKRTPALIALRYQLQRGVVVLAKSYNEQRIRQNVQVFEFQLTSEEMKAIDGLNRNVRYLTLDIFAGPPNYPFSDEY

> <PDB ID(s) of Target Chain>
1IHI,1J96,1XJB,2HDJ,4JQ1,4JQ2,4JQ3,4JQ4,4JQA,4JTQ,4JTR,4L1W,4XO6,4XO7,6F2U

> <UniProt (SwissProt) Recommended Name of Target Chain>
Aldo-keto reductase family 1 member C2

> <UniProt (SwissProt) Entry Name of Target Chain>
AK1C2_HUMAN

> <UniProt (SwissProt) Primary ID of Target Chain>
P52895

> <UniProt (SwissProt) Secondary ID(s) of Target Chain>
A8K2N9,B4DKR9,Q14133,Q5SR16,Q7M4N1,Q96A71

> <UniProt (SwissProt) Alternative ID(s) of Target Chain>


> <UniProt (TrEMBL) Submitted Name of Target Chain>


> <UniProt (TrEMBL) Entry Name of Target Chain>


> <UniProt (TrEMBL) Primary ID of Target Chain>


> <UniProt (TrEMBL) Secondary ID(s) of Target Chain>


> <UniProt (TrEMBL) Alternative ID(s) of Target Chain>


$$$$
BindingDB_50385745_mol_1

Vconf v2.0 Academic SN VC001-00000579
 38 39  0  0  0  0  0  0  0  0999 V2000
    7.2230  -28.0190    0.5230 C   0  0  0  0  0  0  0  0  0  0  0
    7.1500  -29.4240    0.5580 C   0  0  0  0  0  0  0  0  0  0  0
    8.0740  -30.1700    1.3020 C   0  0  0  0  0  0  0  0  0  0  0
    9.1060  -29.5450    2.0300 C   0  0  0  0  0  0  0  0  0  0  0
    9.1360  -28.1190    2.0990 C   0  0  0  0  0  0  0  0  0  0  0
    8.2190  -27.3910    1.3010 C   0  0  0  0  0  0  0  0  0  0  0
    9.9580  -27.3540    2.9720 C   0  0  0  0  0  0  0  0  0  0  0
    9.9880  -26.0030    2.9120 O   0  0  0  0  0  0  0  0  0  0  0
   10.6100  -27.8430    3.9180 O   0  0  0  0  0  0  0  0  0  0  0
    9.9910  -30.4600    2.5350 N   0  0  0  0  0  0  0  0  0  0  0
   11.2750  -30.2850    2.9310 C   0  0  0  0  0  0  0  0  0  0  0
   11.6870  -30.8290    4.1610 C   0  0  0  0  0  0  0  0  0  0  0
   13.0220  -30.7000    4.5910 C   0  0  0  0  0  0  0  0  0  0  0
   13.9500  -30.0310    3.7690 C   0  0  0  0  0  0  0  0  0  0  0
   13.5570  -29.5010    2.5250 C   0  0  0  0  0  0  0  0  0  0  0
   12.2200  -29.6400    2.1080 C   0  0  0  0  0  0  0  0  0  0  0
    6.3070  -27.2700   -0.2610 C   0  0  0  0  0  0  0  0  0  0  0
    5.4270  -27.8510   -0.9390 O   0  0  0  0  0  0  0  0  0  0  0
    6.3310  -25.8020   -0.3310 C   0  0  0  0  0  0  0  0  0  0  0
   14.5460  -28.8110    1.6820 C   0  0  0  0  0  0  0  0  0  0  0
   13.4260  -31.2650    5.8880 C   0  0  0  0  0  0  0  0  0  0  0
    6.4340  -29.9200    0.0240 H   0  0  0  0  0  0  0  0  0  0  0
    8.0160  -31.1890    1.2700 H   0  0  0  0  0  0  0  0  0  0  0
    8.2520  -26.3690    1.3130 H   0  0  0  0  0  0  0  0  0  0  0
   10.5540  -25.5940    3.5990 H   0  0  0  0  0  0  0  0  0  0  0
    9.7010  -31.3850    2.5050 H   0  0  0  0  0  0  0  0  0  0  0
   11.0100  -31.3140    4.7520 H   0  0  0  0  0  0  0  0  0  0  0
   14.9180  -29.9320    4.0760 H   0  0  0  0  0  0  0  0  0  0  0
   11.9300  -29.2660    1.2030 H   0  0  0  0  0  0  0  0  0  0  0
    5.5410  -25.4470   -0.9940 H   0  0  0  0  0  0  0  0  0  0  0
    6.1720  -25.3810    0.6620 H   0  0  0  0  0  0  0  0  0  0  0
    7.2930  -25.4650   -0.7200 H   0  0  0  0  0  0  0  0  0  0  0
   14.0940  -28.4550    0.7550 H   0  0  0  0  0  0  0  0  0  0  0
   14.9530  -27.9560    2.2230 H   0  0  0  0  0  0  0  0  0  0  0
   15.3570  -29.4970    1.4350 H   0  0  0  0  0  0  0  0  0  0  0
   14.4850  -31.0870    6.0830 H   0  0  0  0  0  0  0  0  0  0  0
   12.8420  -30.8030    6.6850 H   0  0  0  0  0  0  0  0  0  0  0
   13.2470  -32.3410    5.8900 H   0  0  0  0  0  0  0  0  0  0  0
  1  2  2  0  0  0  0
  1  6  1  0  0  0  0
  1 17  1  0  0  0  0
  2  3  1  0  0  0  0
  2 22  1  0  0  0  0
  3  4  2  0  0  0  0
  3 23  1  0  0  0  0
  4  5  1  0  0  0  0
  4 10  1  0  0  0  0
  5  6  2  0  0  0  0
  5  7  1  0  0  0  0
  6 24  1  0  0  0  0
  7  8  1  0  0  0  0
  7  9  2  0  0  0  0
  8 25  1  0  0  0  0
 10 11  1  0  0  0  0
 10 26  1  0  0  0  0
 11 12  2  0  0  0  0
 11 16  1  0  0  0  0
 12 13  1  0  0  0  0
 12 27  1  0  0  0  0
 13 14  2  0  0  0  0
 13 21  1  0  0  0  0
 14 15  1  0  0  0  0
 14 28  1  0  0  0  0
 15 16  2  0  0  0  0
 15 20  1  0  0  0  0
 16 29  1  0  0  0  0
 17 18  2  0  0  0  0
 17 19  1  0  0  0  0
 19 30  1  0  0  0  0
 19 31  1  0  0  0  0
 19 32  1  0  0  0  0
 20 33  1  0  0  0  0
 20 34  1  0  0  0  0
 20 35  1  0  0  0  0
 21 36  1  0  0  0  0
 21 37  1  0  0  0  0
 21 38  1  0  0  0  0
M  END
> <From>
www.bindingDB.org

> <BindingDB Reactant_set_id>
50940633

> <Ligand InChI>
InChI=1S/C17H17NO3/c1-10-6-11(2)8-14(7-10)18-16-5-4-13(12(3)19)9-15(16)17(20)21/h4-9,18H,1-3H3,(H,20,21)

> <Ligand InChI Key>
HLTJYEZIZZLZRL-UHFFFAOYSA-N

> <BindingDB MonomerID>
50385745

> <BindingDB Ligand Name>
CHEMBL2041009

> <Target Name Assigned by Curator or DataSource>
Aldo-keto reductase family 1 member C2

> <Target Source Organism According to Curator or DataSource>
Homo sapiens

> <Ki (nM)>


> <IC50 (nM)>
 10600

> <Kd (nM)>


> <EC50 (nM)>


> <kon (M-1-s-1)>


> <koff (s-1)>


> <pH>


> <Temp C>


> <Curation/DataSource>
ChEMBL

> <Article DOI>
10.1021/jm201547v

> <PMID>
22263837

> <PubChem AID>


> <Patent Number>


> <Authors>
Adeniji, AO; Twenter, BM; Byrns, MC; Jin, Y; Chen, M; Winkler, JD; Penning, TM

> <Institution>
University of Pennsylvania

> <Link to Ligand in BindingDB>
http://www.bindingdb.org/bind/chemsearch/marvin/MolStructure.jsp?monomerid=50385745

> <Link to Ligand-Target Pair in BindingDB>
http://www.bindingdb.org/jsp/dbsearch/PrimarySearch_ki.jsp?energyterm=kJ/mole&tag=pol&polymerid=3022&target=Aldo-keto+reductase+family+1+member+C2&column=ki&startPg=0&Increment=50&submit=Search

> <Link to Ligand-Target Pair in BindingDB>
http://www.bindingdb.org/jsp/dbsearch/PrimarySearch_ki.jsp?energyterm=kJ/mole&tag=r21&monomerid=50385745&enzyme=Aldo-keto+reductase+family+1+member+C2&column=ki&startPg=0&Increment=50&submit=Search

> <Ligand HET ID in PDB>


> <PDB ID(s) for Ligand-Target Complex>


> <PubChem CID>
70686079

> <PubChem SID>
160864828

> <ChEBI ID of Ligand>


> <ChEMBL ID of Ligand>
CHEMBL2041009

> <DrugBank ID of Ligand>


> <IUPHAR_GRAC ID of Ligand>


> <KEGG ID of Ligand>


> <ZINC ID of Ligand>
ZINC84723268

> <Number of Protein Chains in Target (>1 implies a multichain complex)>
1

> <BindingDB Target Chain Sequence>
MDSKYQCVKLNDGHFMPVLGFGTYAPAEVPKSKALEAVKLAIEAGFHHIDSAHVYNNEEQVGLAIRSKIADGSVKREDIFYTSKLWSNSHRPELVRPALERSLKNLQLDYVDLYLIHFPVSVKPGEEVIPKDENGKILFDTVDLCATWEAMEKCKDAGLAKSIGVSNFNHRLLEMILNKPGLKYKPVCNQVECHPYFNQRKLLDFCKSKDIVLVAYSALGSHREEPWVDPNSPVLLEDPVLCALAKKHKRTPALIALRYQLQRGVVVLAKSYNEQRIRQNVQVFEFQLTSEEMKAIDGLNRNVRYLTLDIFAGPPNYPFSDEY

> <PDB ID(s) of Target Chain>
1IHI,1J96,1XJB,2HDJ,4JQ1,4JQ2,4JQ3,4JQ4,4JQA,4JTQ,4JTR,4L1W,4XO6,4XO7,6F2U

> <UniProt (SwissProt) Recommended Name of Target Chain>
Aldo-keto reductase family 1 member C2

> <UniProt (SwissProt) Entry Name of Target Chain>
AK1C2_HUMAN

> <UniProt (SwissProt) Primary ID of Target Chain>
P52895

> <UniProt (SwissProt) Secondary ID(s) of Target Chain>
A8K2N9,B4DKR9,Q14133,Q5SR16,Q7M4N1,Q96A71

> <UniProt (SwissProt) Alternative ID(s) of Target Chain>


> <UniProt (TrEMBL) Submitted Name of Target Chain>


> <UniProt (TrEMBL) Entry Name of Target Chain>


> <UniProt (TrEMBL) Primary ID of Target Chain>


> <UniProt (TrEMBL) Secondary ID(s) of Target Chain>


> <UniProt (TrEMBL) Alternative ID(s) of Target Chain>


$$$$
BindingDB_50385746_mol_1

Vconf v2.0 Academic SN VC001-00000579
 38 39  0  0  0  0  0  0  0  0999 V2000
   13.4340  -28.0090    0.7110 C   0  0  0  0  0  0  0  0  0  0  0
   13.4760  -29.2580    0.0620 C   0  0  0  0  0  0  0  0  0  0  0
   14.5170  -30.1620    0.3120 C   0  0  0  0  0  0  0  0  0  0  0
   15.5570  -29.8530    1.2190 C   0  0  0  0  0  0  0  0  0  0  0
   15.5340  -28.5950    1.8850 C   0  0  0  0  0  0  0  0  0  0  0
   14.4720  -27.7000    1.6160 C   0  0  0  0  0  0  0  0  0  0  0
   16.5290  -28.1850    2.8120 C   0  0  0  0  0  0  0  0  0  0  0
   16.4720  -26.9800    3.4240 O   0  0  0  0  0  0  0  0  0  0  0
   17.5100  -28.8970    3.1210 O   0  0  0  0  0  0  0  0  0  0  0
   16.5720  -30.7400    1.4610 N   0  0  0  0  0  0  0  0  0  0  0
   16.7240  -31.9660    0.9050 C   0  0  0  0  0  0  0  0  0  0  0
   16.1560  -33.0960    1.5170 C   0  0  0  0  0  0  0  0  0  0  0
   16.3160  -34.3810    0.9560 C   0  0  0  0  0  0  0  0  0  0  0
   17.0680  -34.5050   -0.2340 C   0  0  0  0  0  0  0  0  0  0  0
   17.6540  -33.3830   -0.8630 C   0  0  0  0  0  0  0  0  0  0  0
   17.4730  -32.1140   -0.2750 C   0  0  0  0  0  0  0  0  0  0  0
   12.3830  -27.0860    0.4700 C   0  0  0  0  0  0  0  0  0  0  0
   12.3630  -25.9790    1.0550 O   0  0  0  0  0  0  0  0  0  0  0
   11.2760  -27.3630   -0.4580 C   0  0  0  0  0  0  0  0  0  0  0
   18.3890  -33.5190   -2.0280 C   0  0  0  0  0  0  0  0  0  0  0
   15.7500  -35.4900    1.5630 C   0  0  0  0  0  0  0  0  0  0  0
   18.9370  -32.4750   -2.6270 O   0  0  0  0  0  0  0  0  0  0  0
   18.5690  -34.6040   -2.5590 O   0  0  0  0  0  0  0  0  0  0  0
   15.0470  -35.3870    2.6780 O   0  0  0  0  0  0  0  0  0  0  0
   15.8720  -36.6140    1.1010 O   0  0  0  0  0  0  0  0  0  0  0
   12.7480  -29.5250   -0.6020 H   0  0  0  0  0  0  0  0  0  0  0
   14.5100  -31.0560   -0.1800 H   0  0  0  0  0  0  0  0  0  0  0
   14.4500  -26.7940    2.0930 H   0  0  0  0  0  0  0  0  0  0  0
   17.2180  -26.8160    4.0370 H   0  0  0  0  0  0  0  0  0  0  0
   17.2580  -30.4730    2.0900 H   0  0  0  0  0  0  0  0  0  0  0
   15.6200  -32.9780    2.3790 H   0  0  0  0  0  0  0  0  0  0  0
   17.1910  -35.4300   -0.6510 H   0  0  0  0  0  0  0  0  0  0  0
   17.8870  -31.2860   -0.7070 H   0  0  0  0  0  0  0  0  0  0  0
   10.5890  -26.5160   -0.4810 H   0  0  0  0  0  0  0  0  0  0  0
   11.6670  -27.5250   -1.4630 H   0  0  0  0  0  0  0  0  0  0  0
   10.7320  -28.2490   -0.1310 H   0  0  0  0  0  0  0  0  0  0  0
   19.4310  -32.7050   -3.4400 H   0  0  0  0  0  0  0  0  0  0  0
   14.7060  -36.2450    3.0040 H   0  0  0  0  0  0  0  0  0  0  0
  1  2  2  0  0  0  0
  1  6  1  0  0  0  0
  1 17  1  0  0  0  0
  2  3  1  0  0  0  0
  2 26  1  0  0  0  0
  3  4  2  0  0  0  0
  3 27  1  0  0  0  0
  4  5  1  0  0  0  0
  4 10  1  0  0  0  0
  5  6  2  0  0  0  0
  5  7  1  0  0  0  0
  6 28  1  0  0  0  0
  7  8  1  0  0  0  0
  7  9  2  0  0  0  0
  8 29  1  0  0  0  0
 10 11  1  0  0  0  0
 10 30  1  0  0  0  0
 11 12  2  0  0  0  0
 11 16  1  0  0  0  0
 12 13  1  0  0  0  0
 12 31  1  0  0  0  0
 13 14  2  0  0  0  0
 13 21  1  0  0  0  0
 14 15  1  0  0  0  0
 14 32  1  0  0  0  0
 15 16  2  0  0  0  0
 15 20  1  0  0  0  0
 16 33  1  0  0  0  0
 17 18  2  0  0  0  0
 17 19  1  0  0  0  0
 19 34  1  0  0  0  0
 19 35  1  0  0  0  0
 19 36  1  0  0  0  0
 20 22  1  0  0  0  0
 20 23  2  0  0  0  0
 21 24  1  0  0  0  0
 21 25  2  0  0  0  0
 22 37  1  0  0  0  0
 24 38  1  0  0  0  0
M  END
> <From>
www.bindingDB.org

> <BindingDB Reactant_set_id>
50940634

> <Ligand InChI>
InChI=1S/C17H13NO7/c1-8(19)9-2-3-14(13(7-9)17(24)25)18-12-5-10(15(20)21)4-11(6-12)16(22)23/h2-7,18H,1H3,(H,20,21)(H,22,23)(H,24,25)

> <Ligand InChI Key>
DFIMKTGWBMKIRE-UHFFFAOYSA-N

> <BindingDB MonomerID>
50385746

> <BindingDB Ligand Name>
CHEMBL2041152

> <Target Name Assigned by Curator or DataSource>
Aldo-keto reductase family 1 member C2

> <Target Source Organism According to Curator or DataSource>
Homo sapiens

> <Ki (nM)>


> <IC50 (nM)>
 31600

> <Kd (nM)>


> <EC50 (nM)>


> <kon (M-1-s-1)>


> <koff (s-1)>


> <pH>


> <Temp C>


> <Curation/DataSource>
ChEMBL

> <Article DOI>
10.1021/jm201547v

> <PMID>
22263837

> <PubChem AID>


> <Patent Number>


> <Authors>
Adeniji, AO; Twenter, BM; Byrns, MC; Jin, Y; Chen, M; Winkler, JD; Penning, TM

> <Institution>
University of Pennsylvania

> <Link to Ligand in BindingDB>
http://www.bindingdb.org/bind/chemsearch/marvin/MolStructure.jsp?monomerid=50385746

> <Link to Ligand-Target Pair in BindingDB>
http://www.bindingdb.org/jsp/dbsearch/PrimarySearch_ki.jsp?energyterm=kJ/mole&tag=pol&polymerid=3022&target=Aldo-keto+reductase+family+1+member+C2&column=ki&startPg=0&Increment=50&submit=Search

> <Link to Ligand-Target Pair in BindingDB>
http://www.bindingdb.org/jsp/dbsearch/PrimarySearch_ki.jsp?energyterm=kJ/mole&tag=r21&monomerid=50385746&enzyme=Aldo-keto+reductase+family+1+member+C2&column=ki&startPg=0&Increment=50&submit=Search

> <Ligand HET ID in PDB>


> <PDB ID(s) for Ligand-Target Complex>


> <PubChem CID>
70688208

> <PubChem SID>
160864829

> <ChEBI ID of Ligand>


> <ChEMBL ID of Ligand>
CHEMBL2041152

> <DrugBank ID of Ligand>


> <IUPHAR_GRAC ID of Ligand>


> <KEGG ID of Ligand>


> <ZINC ID of Ligand>
ZINC84733858

> <Number of Protein Chains in Target (>1 implies a multichain complex)>
1

> <BindingDB Target Chain Sequence>
MDSKYQCVKLNDGHFMPVLGFGTYAPAEVPKSKALEAVKLAIEAGFHHIDSAHVYNNEEQVGLAIRSKIADGSVKREDIFYTSKLWSNSHRPELVRPALERSLKNLQLDYVDLYLIHFPVSVKPGEEVIPKDENGKILFDTVDLCATWEAMEKCKDAGLAKSIGVSNFNHRLLEMILNKPGLKYKPVCNQVECHPYFNQRKLLDFCKSKDIVLVAYSALGSHREEPWVDPNSPVLLEDPVLCALAKKHKRTPALIALRYQLQRGVVVLAKSYNEQRIRQNVQVFEFQLTSEEMKAIDGLNRNVRYLTLDIFAGPPNYPFSDEY

> <PDB ID(s) of Target Chain>
1IHI,1J96,1XJB,2HDJ,4JQ1,4JQ2,4JQ3,4JQ4,4JQA,4JTQ,4JTR,4L1W,4XO6,4XO7,6F2U

> <UniProt (SwissProt) Recommended Name of Target Chain>
Aldo-keto reductase family 1 member C2

> <UniProt (SwissProt) Entry Name of Target Chain>
AK1C2_HUMAN

> <UniProt (SwissProt) Primary ID of Target Chain>
P52895

> <UniProt (SwissProt) Secondary ID(s) of Target Chain>
A8K2N9,B4DKR9,Q14133,Q5SR16,Q7M4N1,Q96A71

> <UniProt (SwissProt) Alternative ID(s) of Target Chain>


> <UniProt (TrEMBL) Submitted Name of Target Chain>


> <UniProt (TrEMBL) Entry Name of Target Chain>


> <UniProt (TrEMBL) Primary ID of Target Chain>


> <UniProt (TrEMBL) Secondary ID(s) of Target Chain>


> <UniProt (TrEMBL) Alternative ID(s) of Target Chain>


$$$$
BindingDB_50385749_mol_1

Vconf v2.0 Academic SN VC001-00000579
 32 33  0  0  0  0  0  0  0  0999 V2000
   18.9150   -1.2280    0.8210 C   0  0  0  0  0  0  0  0  0  0  0
   19.0480   -2.6250    0.7430 C   0  0  0  0  0  0  0  0  0  0  0
   20.3110   -3.2200    0.8860 C   0  0  0  0  0  0  0  0  0  0  0
   21.4460   -2.4170    1.0980 C   0  0  0  0  0  0  0  0  0  0  0
   21.3060   -1.0190    1.1840 C   0  0  0  0  0  0  0  0  0  0  0
   20.0410   -0.4050    1.0450 C   0  0  0  0  0  0  0  0  0  0  0
   22.6630   -2.9960    1.2430 N   0  0  0  0  0  0  0  0  0  0  0
   23.6350   -3.1160    0.2840 C   0  0  0  0  0  0  0  0  0  0  0
   23.4190   -2.6250   -1.0270 C   0  0  0  0  0  0  0  0  0  0  0
   24.3990   -2.7490   -2.0220 C   0  0  0  0  0  0  0  0  0  0  0
   25.6160   -3.3690   -1.7210 C   0  0  0  0  0  0  0  0  0  0  0
   25.8500   -3.8590   -0.4290 C   0  0  0  0  0  0  0  0  0  0  0
   24.8770   -3.7460    0.5960 C   0  0  0  0  0  0  0  0  0  0  0
   25.1880   -4.2640    1.8900 C   0  0  0  0  0  0  0  0  0  0  0
   26.4720   -4.9100    2.2110 C   0  0  0  0  0  0  0  0  0  0  0
   24.3760   -4.1960    2.8400 O   0  0  0  0  0  0  0  0  0  0  0
   19.9140    0.9710    1.1290 C   0  0  0  0  0  0  0  0  0  0  0
   20.9550    1.7500    1.3730 O   0  0  0  0  0  0  0  0  0  0  0
   18.8390    1.5330    0.9840 O   0  0  0  0  0  0  0  0  0  0  0
   17.9880   -0.8130    0.7160 H   0  0  0  0  0  0  0  0  0  0  0
   18.2250   -3.2070    0.5830 H   0  0  0  0  0  0  0  0  0  0  0
   20.4030   -4.2350    0.8310 H   0  0  0  0  0  0  0  0  0  0  0
   22.1360   -0.4470    1.3470 H   0  0  0  0  0  0  0  0  0  0  0
   22.8500   -3.3700    2.1160 H   0  0  0  0  0  0  0  0  0  0  0
   22.5390   -2.1720   -1.2730 H   0  0  0  0  0  0  0  0  0  0  0
   24.2240   -2.3900   -2.9610 H   0  0  0  0  0  0  0  0  0  0  0
   26.3330   -3.4640   -2.4420 H   0  0  0  0  0  0  0  0  0  0  0
   26.7500   -4.3040   -0.2470 H   0  0  0  0  0  0  0  0  0  0  0
   26.4830   -5.2230    3.2560 H   0  0  0  0  0  0  0  0  0  0  0
   26.6140   -5.7890    1.5810 H   0  0  0  0  0  0  0  0  0  0  0
   27.2900   -4.2080    2.0490 H   0  0  0  0  0  0  0  0  0  0  0
   20.7300    2.7020    1.4120 H   0  0  0  0  0  0  0  0  0  0  0
  1  2  2  0  0  0  0
  1  6  1  0  0  0  0
  1 20  1  0  0  0  0
  2  3  1  0  0  0  0
  2 21  1  0  0  0  0
  3  4  2  0  0  0  0
  3 22  1  0  0  0  0
  4  5  1  0  0  0  0
  4  7  1  0  0  0  0
  5  6  2  0  0  0  0
  5 23  1  0  0  0  0
  6 17  1  0  0  0  0
  7  8  1  0  0  0  0
  7 24  1  0  0  0  0
  8  9  2  0  0  0  0
  8 13  1  0  0  0  0
  9 10  1  0  0  0  0
  9 25  1  0  0  0  0
 10 11  2  0  0  0  0
 10 26  1  0  0  0  0
 11 12  1  0  0  0  0
 11 27  1  0  0  0  0
 12 13  2  0  0  0  0
 12 28  1  0  0  0  0
 13 14  1  0  0  0  0
 14 15  1  0  0  0  0
 14 16  2  0  0  0  0
 15 29  1  0  0  0  0
 15 30  1  0  0  0  0
 15 31  1  0  0  0  0
 17 18  1  0  0  0  0
 17 19  2  0  0  0  0
 18 32  1  0  0  0  0
M  END
> <From>
www.bindingDB.org

> <BindingDB Reactant_set_id>
50940638

> <Ligand InChI>
InChI=1S/C15H13NO3/c1-10(17)13-7-2-3-8-14(13)16-12-6-4-5-11(9-12)15(18)19/h2-9,16H,1H3,(H,18,19)

> <Ligand InChI Key>
JLPSFKSTFXYHJE-UHFFFAOYSA-N

> <BindingDB MonomerID>
50385749

> <BindingDB Ligand Name>
CHEMBL2041155

> <Target Name Assigned by Curator or DataSource>
Aldo-keto reductase family 1 member C2

> <Target Source Organism According to Curator or DataSource>
Homo sapiens

> <Ki (nM)>


> <IC50 (nM)>
 32600

> <Kd (nM)>


> <EC50 (nM)>


> <kon (M-1-s-1)>


> <koff (s-1)>


> <pH>


> <Temp C>


> <Curation/DataSource>
ChEMBL

> <Article DOI>
10.1021/jm201547v

> <PMID>
22263837

> <PubChem AID>


> <Patent Number>


> <Authors>
Adeniji, AO; Twenter, BM; Byrns, MC; Jin, Y; Chen, M; Winkler, JD; Penning, TM

> <Institution>
University of Pennsylvania

> <Link to Ligand in BindingDB>
http://www.bindingdb.org/bind/chemsearch/marvin/MolStructure.jsp?monomerid=50385749

> <Link to Ligand-Target Pair in BindingDB>
http://www.bindingdb.org/jsp/dbsearch/PrimarySearch_ki.jsp?energyterm=kJ/mole&tag=pol&polymerid=3022&target=Aldo-keto+reductase+family+1+member+C2&column=ki&startPg=0&Increment=50&submit=Search

> <Link to Ligand-Target Pair in BindingDB>
http://www.bindingdb.org/jsp/dbsearch/PrimarySearch_ki.jsp?energyterm=kJ/mole&tag=r21&monomerid=50385749&enzyme=Aldo-keto+reductase+family+1+member+C2&column=ki&startPg=0&Increment=50&submit=Search

> <Ligand HET ID in PDB>


> <PDB ID(s) for Ligand-Target Complex>


> <PubChem CID>
70688209

> <PubChem SID>
160864832

> <ChEBI ID of Ligand>


> <ChEMBL ID of Ligand>
CHEMBL2041155

> <DrugBank ID of Ligand>


> <IUPHAR_GRAC ID of Ligand>


> <KEGG ID of Ligand>


> <ZINC ID of Ligand>
ZINC82715500

> <Number of Protein Chains in Target (>1 implies a multichain complex)>
1

> <BindingDB Target Chain Sequence>
MDSKYQCVKLNDGHFMPVLGFGTYAPAEVPKSKALEAVKLAIEAGFHHIDSAHVYNNEEQVGLAIRSKIADGSVKREDIFYTSKLWSNSHRPELVRPALERSLKNLQLDYVDLYLIHFPVSVKPGEEVIPKDENGKILFDTVDLCATWEAMEKCKDAGLAKSIGVSNFNHRLLEMILNKPGLKYKPVCNQVECHPYFNQRKLLDFCKSKDIVLVAYSALGSHREEPWVDPNSPVLLEDPVLCALAKKHKRTPALIALRYQLQRGVVVLAKSYNEQRIRQNVQVFEFQLTSEEMKAIDGLNRNVRYLTLDIFAGPPNYPFSDEY

> <PDB ID(s) of Target Chain>
1IHI,1J96,1XJB,2HDJ,4JQ1,4JQ2,4JQ3,4JQ4,4JQA,4JTQ,4JTR,4L1W,4XO6,4XO7,6F2U

> <UniProt (SwissProt) Recommended Name of Target Chain>
Aldo-keto reductase family 1 member C2

> <UniProt (SwissProt) Entry Name of Target Chain>
AK1C2_HUMAN

> <UniProt (SwissProt) Primary ID of Target Chain>
P52895

> <UniProt (SwissProt) Secondary ID(s) of Target Chain>
A8K2N9,B4DKR9,Q14133,Q5SR16,Q7M4N1,Q96A71

> <UniProt (SwissProt) Alternative ID(s) of Target Chain>


> <UniProt (TrEMBL) Submitted Name of Target Chain>


> <UniProt (TrEMBL) Entry Name of Target Chain>


> <UniProt (TrEMBL) Primary ID of Target Chain>


> <UniProt (TrEMBL) Secondary ID(s) of Target Chain>


> <UniProt (TrEMBL) Alternative ID(s) of Target Chain>


$$$$
BindingDB_50385750_mol_1

Vconf v2.0 Academic SN VC001-00000579
 30 31  0  0  0  0  0  0  0  0999 V2000
   25.6450   -1.2080    0.1680 C   0  0  0  0  0  0  0  0  0  0  0
   25.9130   -2.5090   -0.2890 C   0  0  0  0  0  0  0  0  0  0  0
   27.0270   -3.2080    0.1990 C   0  0  0  0  0  0  0  0  0  0  0
   27.8790   -2.6200    1.1510 C   0  0  0  0  0  0  0  0  0  0  0
   27.6060   -1.3060    1.5930 C   0  0  0  0  0  0  0  0  0  0  0
   26.4880   -0.5870    1.1150 C   0  0  0  0  0  0  0  0  0  0  0
   28.9520   -3.3480    1.5660 N   0  0  0  0  0  0  0  0  0  0  0
   29.6500   -3.1910    2.7240 C   0  0  0  0  0  0  0  0  0  0  0
   28.9720   -3.1080    3.9590 C   0  0  0  0  0  0  0  0  0  0  0
   29.6890   -2.9720    5.1570 C   0  0  0  0  0  0  0  0  0  0  0
   31.0890   -2.9280    5.1310 C   0  0  0  0  0  0  0  0  0  0  0
   31.7710   -3.0230    3.9070 C   0  0  0  0  0  0  0  0  0  0  0
   31.0690   -3.1610    2.6860 C   0  0  0  0  0  0  0  0  0  0  0
   31.7950   -3.2620    1.3880 C   0  0  0  0  0  0  0  0  0  0  0
   33.1660   -3.2110    1.4980 F   0  0  0  0  0  0  0  0  0  0  0
   31.4980   -4.4530    0.7680 F   0  0  0  0  0  0  0  0  0  0  0
   31.4330   -2.2310    0.5550 F   0  0  0  0  0  0  0  0  0  0  0
   26.2320    0.6980    1.5640 C   0  0  0  0  0  0  0  0  0  0  0
   27.0190    1.2940    2.4440 O   0  0  0  0  0  0  0  0  0  0  0
   25.2700    1.3420    1.1730 O   0  0  0  0  0  0  0  0  0  0  0
   24.8300   -0.7130   -0.1970 H   0  0  0  0  0  0  0  0  0  0  0
   25.2990   -2.9440   -0.9780 H   0  0  0  0  0  0  0  0  0  0  0
   27.2150   -4.1520   -0.1410 H   0  0  0  0  0  0  0  0  0  0  0
   28.2340   -0.8660    2.2680 H   0  0  0  0  0  0  0  0  0  0  0
   29.2670   -4.0370    0.9590 H   0  0  0  0  0  0  0  0  0  0  0
   27.9530   -3.1500    3.9880 H   0  0  0  0  0  0  0  0  0  0  0
   29.1910   -2.9080    6.0460 H   0  0  0  0  0  0  0  0  0  0  0
   31.6130   -2.8290    6.0010 H   0  0  0  0  0  0  0  0  0  0  0
   32.7900   -2.9930    3.9130 H   0  0  0  0  0  0  0  0  0  0  0
   26.7280    2.2000    2.6780 H   0  0  0  0  0  0  0  0  0  0  0
  1  2  2  0  0  0  0
  1  6  1  0  0  0  0
  1 21  1  0  0  0  0
  2  3  1  0  0  0  0
  2 22  1  0  0  0  0
  3  4  2  0  0  0  0
  3 23  1  0  0  0  0
  4  5  1  0  0  0  0
  4  7  1  0  0  0  0
  5  6  2  0  0  0  0
  5 24  1  0  0  0  0
  6 18  1  0  0  0  0
  7  8  1  0  0  0  0
  7 25  1  0  0  0  0
  8  9  2  0  0  0  0
  8 13  1  0  0  0  0
  9 10  1  0  0  0  0
  9 26  1  0  0  0  0
 10 11  2  0  0  0  0
 10 27  1  0  0  0  0
 11 12  1  0  0  0  0
 11 28  1  0  0  0  0
 12 13  2  0  0  0  0
 12 29  1  0  0  0  0
 13 14  1  0  0  0  0
 14 15  1  0  0  0  0
 14 16  1  0  0  0  0
 14 17  1  0  0  0  0
 18 19  1  0  0  0  0
 18 20  2  0  0  0  0
 19 30  1  0  0  0  0
M  END
> <From>
www.bindingDB.org

> <BindingDB Reactant_set_id>
50940639

> <Ligand InChI>
InChI=1S/C14H10F3NO2/c15-14(16,17)11-6-1-2-7-12(11)18-10-5-3-4-9(8-10)13(19)20/h1-8,18H,(H,19,20)

> <Ligand InChI Key>
WCYIZEAJCICRSQ-UHFFFAOYSA-N

> <BindingDB MonomerID>
50385750

> <BindingDB Ligand Name>
CHEMBL2041156

> <Target Name Assigned by Curator or DataSource>
Aldo-keto reductase family 1 member C2

> <Target Source Organism According to Curator or DataSource>
Homo sapiens

> <Ki (nM)>


> <IC50 (nM)>
 15100

> <Kd (nM)>


> <EC50 (nM)>


> <kon (M-1-s-1)>


> <koff (s-1)>


> <pH>


> <Temp C>


> <Curation/DataSource>
ChEMBL

> <Article DOI>
10.1021/jm201547v

> <PMID>
22263837

> <PubChem AID>


> <Patent Number>


> <Authors>
Adeniji, AO; Twenter, BM; Byrns, MC; Jin, Y; Chen, M; Winkler, JD; Penning, TM

> <Institution>
University of Pennsylvania

> <Link to Ligand in BindingDB>
http://www.bindingdb.org/bind/chemsearch/marvin/MolStructure.jsp?monomerid=50385750

> <Link to Ligand-Target Pair in BindingDB>
http://www.bindingdb.org/jsp/dbsearch/PrimarySearch_ki.jsp?energyterm=kJ/mole&tag=pol&polymerid=3022&target=Aldo-keto+reductase+family+1+member+C2&column=ki&startPg=0&Increment=50&submit=Search

> <Link to Ligand-Target Pair in BindingDB>
http://www.bindingdb.org/jsp/dbsearch/PrimarySearch_ki.jsp?energyterm=kJ/mole&tag=r21&monomerid=50385750&enzyme=Aldo-keto+reductase+family+1+member+C2&column=ki&startPg=0&Increment=50&submit=Search

> <Ligand HET ID in PDB>


> <PDB ID(s) for Ligand-Target Complex>


> <PubChem CID>
62313636

> <PubChem SID>
160864833

> <ChEBI ID of Ligand>


> <ChEMBL ID of Ligand>
CHEMBL2041156

> <DrugBank ID of Ligand>


> <IUPHAR_GRAC ID of Ligand>


> <KEGG ID of Ligand>


> <ZINC ID of Ligand>
ZINC51691861

> <Number of Protein Chains in Target (>1 implies a multichain complex)>
1

> <BindingDB Target Chain Sequence>
MDSKYQCVKLNDGHFMPVLGFGTYAPAEVPKSKALEAVKLAIEAGFHHIDSAHVYNNEEQVGLAIRSKIADGSVKREDIFYTSKLWSNSHRPELVRPALERSLKNLQLDYVDLYLIHFPVSVKPGEEVIPKDENGKILFDTVDLCATWEAMEKCKDAGLAKSIGVSNFNHRLLEMILNKPGLKYKPVCNQVECHPYFNQRKLLDFCKSKDIVLVAYSALGSHREEPWVDPNSPVLLEDPVLCALAKKHKRTPALIALRYQLQRGVVVLAKSYNEQRIRQNVQVFEFQLTSEEMKAIDGLNRNVRYLTLDIFAGPPNYPFSDEY

> <PDB ID(s) of Target Chain>
1IHI,1J96,1XJB,2HDJ,4JQ1,4JQ2,4JQ3,4JQ4,4JQA,4JTQ,4JTR,4L1W,4XO6,4XO7,6F2U

> <UniProt (SwissProt) Recommended Name of Target Chain>
Aldo-keto reductase family 1 member C2

> <UniProt (SwissProt) Entry Name of Target Chain>
AK1C2_HUMAN

> <UniProt (SwissProt) Primary ID of Target Chain>
P52895

> <UniProt (SwissProt) Secondary ID(s) of Target Chain>
A8K2N9,B4DKR9,Q14133,Q5SR16,Q7M4N1,Q96A71

> <UniProt (SwissProt) Alternative ID(s) of Target Chain>


> <UniProt (TrEMBL) Submitted Name of Target Chain>


> <UniProt (TrEMBL) Entry Name of Target Chain>


> <UniProt (TrEMBL) Primary ID of Target Chain>


> <UniProt (TrEMBL) Secondary ID(s) of Target Chain>


> <UniProt (TrEMBL) Alternative ID(s) of Target Chain>


$$$$
BindingDB_50385752_mol_1

Vconf v2.0 Academic SN VC001-00000579
 32 33  0  0  0  0  0  0  0  0999 V2000
    8.0430   -7.4540    0.9860 C   0  0  0  0  0  0  0  0  0  0  0
    8.1270   -8.8370    1.2140 C   0  0  0  0  0  0  0  0  0  0  0
    9.3820   -9.4580    1.3150 C   0  0  0  0  0  0  0  0  0  0  0
   10.5620   -8.7050    1.1800 C   0  0  0  0  0  0  0  0  0  0  0
   10.4650   -7.3120    0.9670 C   0  0  0  0  0  0  0  0  0  0  0
    9.2110   -6.6700    0.8610 C   0  0  0  0  0  0  0  0  0  0  0
   11.7480   -9.3580    1.3080 N   0  0  0  0  0  0  0  0  0  0  0
   12.9160   -9.0690    0.6730 C   0  0  0  0  0  0  0  0  0  0  0
   14.1160   -9.3140    1.3630 C   0  0  0  0  0  0  0  0  0  0  0
   15.3520   -9.0520    0.7520 C   0  0  0  0  0  0  0  0  0  0  0
   15.3960   -8.5520   -0.5590 C   0  0  0  0  0  0  0  0  0  0  0
   14.2090   -8.3120   -1.2870 C   0  0  0  0  0  0  0  0  0  0  0
   12.9750   -8.5830   -0.6520 C   0  0  0  0  0  0  0  0  0  0  0
   14.2420   -7.8270   -2.5920 C   0  0  0  0  0  0  0  0  0  0  0
   13.2090   -7.6900   -3.2320 O   0  0  0  0  0  0  0  0  0  0  0
   15.4640   -7.4570   -3.2640 C   0  0  0  0  0  0  0  0  0  0  0
    9.1220   -5.3060    0.6420 C   0  0  0  0  0  0  0  0  0  0  0
    7.9550   -4.6980    0.5090 O   0  0  0  0  0  0  0  0  0  0  0
   10.1140   -4.5970    0.5600 O   0  0  0  0  0  0  0  0  0  0  0
    7.1220   -7.0190    0.9150 H   0  0  0  0  0  0  0  0  0  0  0
    7.2750   -9.3910    1.3080 H   0  0  0  0  0  0  0  0  0  0  0
    9.4330  -10.4630    1.4820 H   0  0  0  0  0  0  0  0  0  0  0
   11.3200   -6.7580    0.8910 H   0  0  0  0  0  0  0  0  0  0  0
   11.7630  -10.1130    1.9180 H   0  0  0  0  0  0  0  0  0  0  0
   14.0940   -9.6810    2.3150 H   0  0  0  0  0  0  0  0  0  0  0
   16.2190   -9.2260    1.2610 H   0  0  0  0  0  0  0  0  0  0  0
   16.3080   -8.3700   -0.9800 H   0  0  0  0  0  0  0  0  0  0  0
   12.1030   -8.4260   -1.1600 H   0  0  0  0  0  0  0  0  0  0  0
   15.2460   -7.0920   -4.2690 H   0  0  0  0  0  0  0  0  0  0  0
   15.9700   -6.6670   -2.7080 H   0  0  0  0  0  0  0  0  0  0  0
   16.1220   -8.3240   -3.3440 H   0  0  0  0  0  0  0  0  0  0  0
    8.0320   -3.7340    0.3560 H   0  0  0  0  0  0  0  0  0  0  0
  1  2  2  0  0  0  0
  1  6  1  0  0  0  0
  1 20  1  0  0  0  0
  2  3  1  0  0  0  0
  2 21  1  0  0  0  0
  3  4  2  0  0  0  0
  3 22  1  0  0  0  0
  4  5  1  0  0  0  0
  4  7  1  0  0  0  0
  5  6  2  0  0  0  0
  5 23  1  0  0  0  0
  6 17  1  0  0  0  0
  7  8  1  0  0  0  0
  7 24  1  0  0  0  0
  8  9  2  0  0  0  0
  8 13  1  0  0  0  0
  9 10  1  0  0  0  0
  9 25  1  0  0  0  0
 10 11  2  0  0  0  0
 10 26  1  0  0  0  0
 11 12  1  0  0  0  0
 11 27  1  0  0  0  0
 12 13  2  0  0  0  0
 12 14  1  0  0  0  0
 13 28  1  0  0  0  0
 14 15  2  0  0  0  0
 14 16  1  0  0  0  0
 16 29  1  0  0  0  0
 16 30  1  0  0  0  0
 16 31  1  0  0  0  0
 17 18  1  0  0  0  0
 17 19  2  0  0  0  0
 18 32  1  0  0  0  0
M  END
> <From>
www.bindingDB.org

> <BindingDB Reactant_set_id>
50940642

> <Ligand InChI>
InChI=1S/C15H13NO3/c1-10(17)11-4-2-6-13(8-11)16-14-7-3-5-12(9-14)15(18)19/h2-9,16H,1H3,(H,18,19)

> <Ligand InChI Key>
FCLZZEWSDKPVDI-UHFFFAOYSA-N

> <BindingDB MonomerID>
50385752

> <BindingDB Ligand Name>
CHEMBL2041159

> <Target Name Assigned by Curator or DataSource>
Aldo-keto reductase family 1 member C2

> <Target Source Organism According to Curator or DataSource>
Homo sapiens

> <Ki (nM)>


> <IC50 (nM)>
 36600

> <Kd (nM)>


> <EC50 (nM)>


> <kon (M-1-s-1)>


> <koff (s-1)>


> <pH>


> <Temp C>


> <Curation/DataSource>
ChEMBL

> <Article DOI>
10.1021/jm201547v

> <PMID>
22263837

> <PubChem AID>


> <Patent Number>


> <Authors>
Adeniji, AO; Twenter, BM; Byrns, MC; Jin, Y; Chen, M; Winkler, JD; Penning, TM

> <Institution>
University of Pennsylvania

> <Link to Ligand in BindingDB>
http://www.bindingdb.org/bind/chemsearch/marvin/MolStructure.jsp?monomerid=50385752

> <Link to Ligand-Target Pair in BindingDB>
http://www.bindingdb.org/jsp/dbsearch/PrimarySearch_ki.jsp?energyterm=kJ/mole&tag=pol&polymerid=3022&target=Aldo-keto+reductase+family+1+member+C2&column=ki&startPg=0&Increment=50&submit=Search

> <Link to Ligand-Target Pair in BindingDB>
http://www.bindingdb.org/jsp/dbsearch/PrimarySearch_ki.jsp?energyterm=kJ/mole&tag=r21&monomerid=50385752&enzyme=Aldo-keto+reductase+family+1+member+C2&column=ki&startPg=0&Increment=50&submit=Search

> <Ligand HET ID in PDB>


> <PDB ID(s) for Ligand-Target Complex>


> <PubChem CID>
70696516

> <PubChem SID>
160864835

> <ChEBI ID of Ligand>


> <ChEMBL ID of Ligand>
CHEMBL2041159

> <DrugBank ID of Ligand>


> <IUPHAR_GRAC ID of Ligand>


> <KEGG ID of Ligand>


> <ZINC ID of Ligand>
ZINC84652092

> <Number of Protein Chains in Target (>1 implies a multichain complex)>
1

> <BindingDB Target Chain Sequence>
MDSKYQCVKLNDGHFMPVLGFGTYAPAEVPKSKALEAVKLAIEAGFHHIDSAHVYNNEEQVGLAIRSKIADGSVKREDIFYTSKLWSNSHRPELVRPALERSLKNLQLDYVDLYLIHFPVSVKPGEEVIPKDENGKILFDTVDLCATWEAMEKCKDAGLAKSIGVSNFNHRLLEMILNKPGLKYKPVCNQVECHPYFNQRKLLDFCKSKDIVLVAYSALGSHREEPWVDPNSPVLLEDPVLCALAKKHKRTPALIALRYQLQRGVVVLAKSYNEQRIRQNVQVFEFQLTSEEMKAIDGLNRNVRYLTLDIFAGPPNYPFSDEY

> <PDB ID(s) of Target Chain>
1IHI,1J96,1XJB,2HDJ,4JQ1,4JQ2,4JQ3,4JQ4,4JQA,4JTQ,4JTR,4L1W,4XO6,4XO7,6F2U

> <UniProt (SwissProt) Recommended Name of Target Chain>
Aldo-keto reductase family 1 member C2

> <UniProt (SwissProt) Entry Name of Target Chain>
AK1C2_HUMAN

> <UniProt (SwissProt) Primary ID of Target Chain>
P52895

> <UniProt (SwissProt) Secondary ID(s) of Target Chain>
A8K2N9,B4DKR9,Q14133,Q5SR16,Q7M4N1,Q96A71

> <UniProt (SwissProt) Alternative ID(s) of Target Chain>


> <UniProt (TrEMBL) Submitted Name of Target Chain>


> <UniProt (TrEMBL) Entry Name of Target Chain>


> <UniProt (TrEMBL) Primary ID of Target Chain>


> <UniProt (TrEMBL) Secondary ID(s) of Target Chain>


> <UniProt (TrEMBL) Alternative ID(s) of Target Chain>


$$$$
BindingDB_50385755_mol_1

Vconf v2.0 Academic SN VC001-00000579
 30 31  0  0  0  0  0  0  0  0999 V2000
   29.3830   -7.5020    0.8770 C   0  0  0  0  0  0  0  0  0  0  0
   29.4010   -8.8960    1.0400 C   0  0  0  0  0  0  0  0  0  0  0
   30.6240   -9.5710    1.1830 C   0  0  0  0  0  0  0  0  0  0  0
   31.8370   -8.8590    1.1560 C   0  0  0  0  0  0  0  0  0  0  0
   31.8060   -7.4550    1.0110 C   0  0  0  0  0  0  0  0  0  0  0
   30.5850   -6.7590    0.8620 C   0  0  0  0  0  0  0  0  0  0  0
   32.9890   -9.5640    1.3180 N   0  0  0  0  0  0  0  0  0  0  0
   34.1970   -9.3070    0.7440 C   0  0  0  0  0  0  0  0  0  0  0
   35.3510   -9.6740    1.4590 C   0  0  0  0  0  0  0  0  0  0  0
   36.6260   -9.4540    0.9140 C   0  0  0  0  0  0  0  0  0  0  0
   36.7550   -8.8710   -0.3570 C   0  0  0  0  0  0  0  0  0  0  0
   35.6150   -8.5050   -1.1040 C   0  0  0  0  0  0  0  0  0  0  0
   34.3400   -8.7370   -0.5400 C   0  0  0  0  0  0  0  0  0  0  0
   35.7470   -7.9340   -2.3580 C   0  0  0  0  0  0  0  0  0  0  0
   30.5740   -5.3840    0.7090 C   0  0  0  0  0  0  0  0  0  0  0
   31.6930   -4.6810    0.6670 O   0  0  0  0  0  0  0  0  0  0  0
   29.5330   -4.7520    0.6040 O   0  0  0  0  0  0  0  0  0  0  0
   36.9330   -7.7250   -2.9050 O   0  0  0  0  0  0  0  0  0  0  0
   34.7780   -7.5930   -3.0210 O   0  0  0  0  0  0  0  0  0  0  0
   28.4850   -7.0270    0.7720 H   0  0  0  0  0  0  0  0  0  0  0
   28.5260   -9.4200    1.0540 H   0  0  0  0  0  0  0  0  0  0  0
   30.6270  -10.5850    1.3030 H   0  0  0  0  0  0  0  0  0  0  0
   32.6840   -6.9350    1.0150 H   0  0  0  0  0  0  0  0  0  0  0
   32.9450  -10.3370    1.9020 H   0  0  0  0  0  0  0  0  0  0  0
   35.2670  -10.1010    2.3830 H   0  0  0  0  0  0  0  0  0  0  0
   37.4580   -9.7190    1.4410 H   0  0  0  0  0  0  0  0  0  0  0
   37.6900   -8.7170   -0.7370 H   0  0  0  0  0  0  0  0  0  0  0
   33.5040   -8.4910   -1.0720 H   0  0  0  0  0  0  0  0  0  0  0
   31.5470   -3.7200    0.5500 H   0  0  0  0  0  0  0  0  0  0  0
   36.8870   -7.3160   -3.7940 H   0  0  0  0  0  0  0  0  0  0  0
  1  2  2  0  0  0  0
  1  6  1  0  0  0  0
  1 20  1  0  0  0  0
  2  3  1  0  0  0  0
  2 21  1  0  0  0  0
  3  4  2  0  0  0  0
  3 22  1  0  0  0  0
  4  5  1  0  0  0  0
  4  7  1  0  0  0  0
  5  6  2  0  0  0  0
  5 23  1  0  0  0  0
  6 15  1  0  0  0  0
  7  8  1  0  0  0  0
  7 24  1  0  0  0  0
  8  9  2  0  0  0  0
  8 13  1  0  0  0  0
  9 10  1  0  0  0  0
  9 25  1  0  0  0  0
 10 11  2  0  0  0  0
 10 26  1  0  0  0  0
 11 12  1  0  0  0  0
 11 27  1  0  0  0  0
 12 13  2  0  0  0  0
 12 14  1  0  0  0  0
 13 28  1  0  0  0  0
 14 18  1  0  0  0  0
 14 19  2  0  0  0  0
 15 16  1  0  0  0  0
 15 17  2  0  0  0  0
 16 29  1  0  0  0  0
 18 30  1  0  0  0  0
M  END
> <From>
www.bindingDB.org

> <BindingDB Reactant_set_id>
50940646

> <Ligand InChI>
InChI=1S/C14H11NO4/c16-13(17)9-3-1-5-11(7-9)15-12-6-2-4-10(8-12)14(18)19/h1-8,15H,(H,16,17)(H,18,19)

> <Ligand InChI Key>
MPXVCKIZEOJZJG-UHFFFAOYSA-N

> <BindingDB MonomerID>
50385755

> <BindingDB Ligand Name>
CHEMBL2041163

> <Target Name Assigned by Curator or DataSource>
Aldo-keto reductase family 1 member C2

> <Target Source Organism According to Curator or DataSource>
Homo sapiens

> <Ki (nM)>


> <IC50 (nM)>
>100000

> <Kd (nM)>


> <EC50 (nM)>


> <kon (M-1-s-1)>


> <koff (s-1)>


> <pH>


> <Temp C>


> <Curation/DataSource>
ChEMBL

> <Article DOI>
10.1021/jm201547v

> <PMID>
22263837

> <PubChem AID>


> <Patent Number>


> <Authors>
Adeniji, AO; Twenter, BM; Byrns, MC; Jin, Y; Chen, M; Winkler, JD; Penning, TM

> <Institution>
University of Pennsylvania

> <Link to Ligand in BindingDB>
http://www.bindingdb.org/bind/chemsearch/marvin/MolStructure.jsp?monomerid=50385755

> <Link to Ligand-Target Pair in BindingDB>
http://www.bindingdb.org/jsp/dbsearch/PrimarySearch_ki.jsp?energyterm=kJ/mole&tag=pol&polymerid=3022&target=Aldo-keto+reductase+family+1+member+C2&column=ki&startPg=0&Increment=50&submit=Search

> <Link to Ligand-Target Pair in BindingDB>
http://www.bindingdb.org/jsp/dbsearch/PrimarySearch_ki.jsp?energyterm=kJ/mole&tag=r21&monomerid=50385755&enzyme=Aldo-keto+reductase+family+1+member+C2&column=ki&startPg=0&Increment=50&submit=Search

> <Ligand HET ID in PDB>


> <PDB ID(s) for Ligand-Target Complex>


> <PubChem CID>
70683957

> <PubChem SID>
160864838

> <ChEBI ID of Ligand>


> <ChEMBL ID of Ligand>
CHEMBL2041163

> <DrugBank ID of Ligand>


> <IUPHAR_GRAC ID of Ligand>


> <KEGG ID of Ligand>


> <ZINC ID of Ligand>
ZINC82715692

> <Number of Protein Chains in Target (>1 implies a multichain complex)>
1

> <BindingDB Target Chain Sequence>
MDSKYQCVKLNDGHFMPVLGFGTYAPAEVPKSKALEAVKLAIEAGFHHIDSAHVYNNEEQVGLAIRSKIADGSVKREDIFYTSKLWSNSHRPELVRPALERSLKNLQLDYVDLYLIHFPVSVKPGEEVIPKDENGKILFDTVDLCATWEAMEKCKDAGLAKSIGVSNFNHRLLEMILNKPGLKYKPVCNQVECHPYFNQRKLLDFCKSKDIVLVAYSALGSHREEPWVDPNSPVLLEDPVLCALAKKHKRTPALIALRYQLQRGVVVLAKSYNEQRIRQNVQVFEFQLTSEEMKAIDGLNRNVRYLTLDIFAGPPNYPFSDEY

> <PDB ID(s) of Target Chain>
1IHI,1J96,1XJB,2HDJ,4JQ1,4JQ2,4JQ3,4JQ4,4JQA,4JTQ,4JTR,4L1W,4XO6,4XO7,6F2U

> <UniProt (SwissProt) Recommended Name of Target Chain>
Aldo-keto reductase family 1 member C2

> <UniProt (SwissProt) Entry Name of Target Chain>
AK1C2_HUMAN

> <UniProt (SwissProt) Primary ID of Target Chain>
P52895

> <UniProt (SwissProt) Secondary ID(s) of Target Chain>
A8K2N9,B4DKR9,Q14133,Q5SR16,Q7M4N1,Q96A71

> <UniProt (SwissProt) Alternative ID(s) of Target Chain>


> <UniProt (TrEMBL) Submitted Name of Target Chain>


> <UniProt (TrEMBL) Entry Name of Target Chain>


> <UniProt (TrEMBL) Primary ID of Target Chain>


> <UniProt (TrEMBL) Secondary ID(s) of Target Chain>


> <UniProt (TrEMBL) Alternative ID(s) of Target Chain>


$$$$
BindingDB_50385759_mol_1

Vconf v2.0 Academic SN VC001-00000579
 32 33  0  0  0  0  0  0  0  0999 V2000
   21.1940   -0.5600    0.2390 C   0  0  0  0  0  0  0  0  0  0  0
   20.9920   -1.9070   -0.0850 C   0  0  0  0  0  0  0  0  0  0  0
   21.7630   -2.8960    0.5410 C   0  0  0  0  0  0  0  0  0  0  0
   22.7530   -2.5630    1.4980 C   0  0  0  0  0  0  0  0  0  0  0
   22.9530   -1.1920    1.8330 C   0  0  0  0  0  0  0  0  0  0  0
   22.1630   -0.2090    1.1890 C   0  0  0  0  0  0  0  0  0  0  0
   23.9100   -0.7480    2.7830 C   0  0  0  0  0  0  0  0  0  0  0
   24.0680    0.5650    3.0680 O   0  0  0  0  0  0  0  0  0  0  0
   24.6610   -1.5260    3.4120 O   0  0  0  0  0  0  0  0  0  0  0
   23.5060   -3.5310    2.1110 N   0  0  0  0  0  0  0  0  0  0  0
   23.4750   -4.8700    1.8910 C   0  0  0  0  0  0  0  0  0  0  0
   23.1260   -5.7250    2.9500 C   0  0  0  0  0  0  0  0  0  0  0
   23.1150   -7.1150    2.7580 C   0  0  0  0  0  0  0  0  0  0  0
   23.4620   -7.6540    1.5090 C   0  0  0  0  0  0  0  0  0  0  0
   23.8330   -6.8190    0.4290 C   0  0  0  0  0  0  0  0  0  0  0
   23.8410   -5.4210    0.6460 C   0  0  0  0  0  0  0  0  0  0  0
   24.1780   -7.3650   -0.8030 C   0  0  0  0  0  0  0  0  0  0  0
   24.1480   -8.5760   -0.9780 O   0  0  0  0  0  0  0  0  0  0  0
   24.5830   -6.5650   -1.9350 C   0  0  0  0  0  0  0  0  0  0  0
   20.6350    0.1640   -0.2140 H   0  0  0  0  0  0  0  0  0  0  0
   20.2840   -2.1680   -0.7710 H   0  0  0  0  0  0  0  0  0  0  0
   21.5880   -3.8700    0.2950 H   0  0  0  0  0  0  0  0  0  0  0
   22.2870    0.7810    1.4080 H   0  0  0  0  0  0  0  0  0  0  0
   24.7590    0.7400    3.7390 H   0  0  0  0  0  0  0  0  0  0  0
   24.1190   -3.2380    2.8010 H   0  0  0  0  0  0  0  0  0  0  0
   22.8760   -5.3380    3.8610 H   0  0  0  0  0  0  0  0  0  0  0
   22.8570   -7.7340    3.5270 H   0  0  0  0  0  0  0  0  0  0  0
   23.4460   -8.6680    1.3890 H   0  0  0  0  0  0  0  0  0  0  0
   24.1130   -4.7880   -0.1070 H   0  0  0  0  0  0  0  0  0  0  0
   24.8080   -7.2070   -2.7890 H   0  0  0  0  0  0  0  0  0  0  0
   23.7800   -5.8830   -2.2140 H   0  0  0  0  0  0  0  0  0  0  0
   25.4770   -5.9930   -1.6840 H   0  0  0  0  0  0  0  0  0  0  0
  1  2  2  0  0  0  0
  1  6  1  0  0  0  0
  1 20  1  0  0  0  0
  2  3  1  0  0  0  0
  2 21  1  0  0  0  0
  3  4  2  0  0  0  0
  3 22  1  0  0  0  0
  4  5  1  0  0  0  0
  4 10  1  0  0  0  0
  5  6  2  0  0  0  0
  5  7  1  0  0  0  0
  6 23  1  0  0  0  0
  7  8  1  0  0  0  0
  7  9  2  0  0  0  0
  8 24  1  0  0  0  0
 10 11  1  0  0  0  0
 10 25  1  0  0  0  0
 11 12  2  0  0  0  0
 11 16  1  0  0  0  0
 12 13  1  0  0  0  0
 12 26  1  0  0  0  0
 13 14  2  0  0  0  0
 13 27  1  0  0  0  0
 14 15  1  0  0  0  0
 14 28  1  0  0  0  0
 15 16  2  0  0  0  0
 15 17  1  0  0  0  0
 16 29  1  0  0  0  0
 17 18  2  0  0  0  0
 17 19  1  0  0  0  0
 19 30  1  0  0  0  0
 19 31  1  0  0  0  0
 19 32  1  0  0  0  0
M  END
> <From>
www.bindingDB.org

> <BindingDB Reactant_set_id>
50940594

> <Ligand InChI>
InChI=1S/C15H13NO3/c1-10(17)11-5-4-6-12(9-11)16-14-8-3-2-7-13(14)15(18)19/h2-9,16H,1H3,(H,18,19)

> <Ligand InChI Key>
URNBQFPUGNNQRC-UHFFFAOYSA-N

> <BindingDB MonomerID>
50385759

> <BindingDB Ligand Name>
CHEMBL2043301

> <Target Name Assigned by Curator or DataSource>
Aldo-keto reductase family 1 member C2

> <Target Source Organism According to Curator or DataSource>
Homo sapiens

> <Ki (nM)>


> <IC50 (nM)>
 1550

> <Kd (nM)>


> <EC50 (nM)>


> <kon (M-1-s-1)>


> <koff (s-1)>


> <pH>


> <Temp C>


> <Curation/DataSource>
ChEMBL

> <Article DOI>
10.1021/jm201547v

> <PMID>
22263837

> <PubChem AID>


> <Patent Number>


> <Authors>
Adeniji, AO; Twenter, BM; Byrns, MC; Jin, Y; Chen, M; Winkler, JD; Penning, TM

> <Institution>
University of Pennsylvania

> <Link to Ligand in BindingDB>
http://www.bindingdb.org/bind/chemsearch/marvin/MolStructure.jsp?monomerid=50385759

> <Link to Ligand-Target Pair in BindingDB>
http://www.bindingdb.org/jsp/dbsearch/PrimarySearch_ki.jsp?energyterm=kJ/mole&tag=pol&polymerid=3022&target=Aldo-keto+reductase+family+1+member+C2&column=ki&startPg=0&Increment=50&submit=Search

> <Link to Ligand-Target Pair in BindingDB>
http://www.bindingdb.org/jsp/dbsearch/PrimarySearch_ki.jsp?energyterm=kJ/mole&tag=r21&monomerid=50385759&enzyme=Aldo-keto+reductase+family+1+member+C2&column=ki&startPg=0&Increment=50&submit=Search

> <Ligand HET ID in PDB>


> <PDB ID(s) for Ligand-Target Complex>


> <PubChem CID>
119703

> <PubChem SID>
160864842

> <ChEBI ID of Ligand>


> <ChEMBL ID of Ligand>
CHEMBL2043301

> <DrugBank ID of Ligand>


> <IUPHAR_GRAC ID of Ligand>


> <KEGG ID of Ligand>


> <ZINC ID of Ligand>
ZINC05138098

> <Number of Protein Chains in Target (>1 implies a multichain complex)>
1

> <BindingDB Target Chain Sequence>
MDSKYQCVKLNDGHFMPVLGFGTYAPAEVPKSKALEAVKLAIEAGFHHIDSAHVYNNEEQVGLAIRSKIADGSVKREDIFYTSKLWSNSHRPELVRPALERSLKNLQLDYVDLYLIHFPVSVKPGEEVIPKDENGKILFDTVDLCATWEAMEKCKDAGLAKSIGVSNFNHRLLEMILNKPGLKYKPVCNQVECHPYFNQRKLLDFCKSKDIVLVAYSALGSHREEPWVDPNSPVLLEDPVLCALAKKHKRTPALIALRYQLQRGVVVLAKSYNEQRIRQNVQVFEFQLTSEEMKAIDGLNRNVRYLTLDIFAGPPNYPFSDEY

> <PDB ID(s) of Target Chain>
1IHI,1J96,1XJB,2HDJ,4JQ1,4JQ2,4JQ3,4JQ4,4JQA,4JTQ,4JTR,4L1W,4XO6,4XO7,6F2U

> <UniProt (SwissProt) Recommended Name of Target Chain>
Aldo-keto reductase family 1 member C2

> <UniProt (SwissProt) Entry Name of Target Chain>
AK1C2_HUMAN

> <UniProt (SwissProt) Primary ID of Target Chain>
P52895

> <UniProt (SwissProt) Secondary ID(s) of Target Chain>
A8K2N9,B4DKR9,Q14133,Q5SR16,Q7M4N1,Q96A71

> <UniProt (SwissProt) Alternative ID(s) of Target Chain>


> <UniProt (TrEMBL) Submitted Name of Target Chain>


> <UniProt (TrEMBL) Entry Name of Target Chain>


> <UniProt (TrEMBL) Primary ID of Target Chain>


> <UniProt (TrEMBL) Secondary ID(s) of Target Chain>


> <UniProt (TrEMBL) Alternative ID(s) of Target Chain>


$$$$
BindingDB_50385763_mol_1

Vconf v2.0 Academic SN VC001-00000579
 34 35  0  0  0  0  0  0  0  0999 V2000
   11.0480   -8.0820    0.8980 C   0  0  0  0  0  0  0  0  0  0  0
   10.7570   -9.4410    0.7210 C   0  0  0  0  0  0  0  0  0  0  0
   11.7230  -10.3960    1.0890 C   0  0  0  0  0  0  0  0  0  0  0
   12.9740  -10.0180    1.6360 C   0  0  0  0  0  0  0  0  0  0  0
   13.2630   -8.6330    1.8010 C   0  0  0  0  0  0  0  0  0  0  0
   12.2830   -7.6840    1.4280 C   0  0  0  0  0  0  0  0  0  0  0
   14.4880   -8.1440    2.3270 C   0  0  0  0  0  0  0  0  0  0  0
   14.7180   -6.8180    2.4650 O   0  0  0  0  0  0  0  0  0  0  0
   15.4240   -8.8910    2.6900 O   0  0  0  0  0  0  0  0  0  0  0
   13.9080  -10.9570    1.9920 N   0  0  0  0  0  0  0  0  0  0  0
   13.7910  -12.3090    1.9350 C   0  0  0  0  0  0  0  0  0  0  0
   14.6870  -13.0350    1.1300 C   0  0  0  0  0  0  0  0  0  0  0
   14.6070  -14.4370    1.0690 C   0  0  0  0  0  0  0  0  0  0  0
   13.6370  -15.1190    1.8220 C   0  0  0  0  0  0  0  0  0  0  0
   12.7430  -14.4060    2.6450 C   0  0  0  0  0  0  0  0  0  0  0
   12.8320  -13.0000    2.7030 C   0  0  0  0  0  0  0  0  0  0  0
   11.7340  -15.1350    3.4280 C   0  0  0  0  0  0  0  0  0  0  0
    9.5370   -9.7550    0.1930 O   0  0  0  0  0  0  0  0  0  0  0
    9.1210  -11.1040   -0.0350 C   0  0  0  0  0  0  0  0  0  0  0
   10.3590   -7.3760    0.6370 H   0  0  0  0  0  0  0  0  0  0  0
   11.5100  -11.3810    0.9480 H   0  0  0  0  0  0  0  0  0  0  0
   12.4600   -6.6840    1.5400 H   0  0  0  0  0  0  0  0  0  0  0
   15.6000   -6.6090    2.8350 H   0  0  0  0  0  0  0  0  0  0  0
   14.7650  -10.6280    2.3000 H   0  0  0  0  0  0  0  0  0  0  0
   15.3960  -12.5450    0.5830 H   0  0  0  0  0  0  0  0  0  0  0
   15.2550  -14.9590    0.4800 H   0  0  0  0  0  0  0  0  0  0  0
   13.5830  -16.1370    1.7720 H   0  0  0  0  0  0  0  0  0  0  0
   12.1940  -12.4770    3.3040 H   0  0  0  0  0  0  0  0  0  0  0
   11.1230  -14.4500    4.0180 H   0  0  0  0  0  0  0  0  0  0  0
   11.0830  -15.6930    2.7550 H   0  0  0  0  0  0  0  0  0  0  0
   12.2300  -15.8320    4.1050 H   0  0  0  0  0  0  0  0  0  0  0
    8.1160  -11.0960   -0.4560 H   0  0  0  0  0  0  0  0  0  0  0
    9.7950  -11.5940   -0.7400 H   0  0  0  0  0  0  0  0  0  0  0
    9.1050  -11.6600    0.9050 H   0  0  0  0  0  0  0  0  0  0  0
  1  2  2  0  0  0  0
  1  6  1  0  0  0  0
  1 20  1  0  0  0  0
  2  3  1  0  0  0  0
  2 18  1  0  0  0  0
  3  4  2  0  0  0  0
  3 21  1  0  0  0  0
  4  5  1  0  0  0  0
  4 10  1  0  0  0  0
  5  6  2  0  0  0  0
  5  7  1  0  0  0  0
  6 22  1  0  0  0  0
  7  8  1  0  0  0  0
  7  9  2  0  0  0  0
  8 23  1  0  0  0  0
 10 11  1  0  0  0  0
 10 24  1  0  0  0  0
 11 12  2  0  0  0  0
 11 16  1  0  0  0  0
 12 13  1  0  0  0  0
 12 25  1  0  0  0  0
 13 14  2  0  0  0  0
 13 26  1  0  0  0  0
 14 15  1  0  0  0  0
 14 27  1  0  0  0  0
 15 16  2  0  0  0  0
 15 17  1  0  0  0  0
 16 28  1  0  0  0  0
 17 29  1  0  0  0  0
 17 30  1  0  0  0  0
 17 31  1  0  0  0  0
 18 19  1  0  0  0  0
 19 32  1  0  0  0  0
 19 33  1  0  0  0  0
 19 34  1  0  0  0  0
M  END
> <From>
www.bindingDB.org

> <BindingDB Reactant_set_id>
50940600

> <Ligand InChI>
InChI=1S/C15H15NO3/c1-10-4-3-5-11(8-10)16-14-9-12(19-2)6-7-13(14)15(17)18/h3-9,16H,1-2H3,(H,17,18)

> <Ligand InChI Key>
CKNAJSIREWUAJH-UHFFFAOYSA-N

> <BindingDB MonomerID>
50385763

> <BindingDB Ligand Name>
CHEMBL2043316

> <Target Name Assigned by Curator or DataSource>
Aldo-keto reductase family 1 member C2

> <Target Source Organism According to Curator or DataSource>
Homo sapiens

> <Ki (nM)>


> <IC50 (nM)>
 870

> <Kd (nM)>


> <EC50 (nM)>


> <kon (M-1-s-1)>


> <koff (s-1)>


> <pH>


> <Temp C>


> <Curation/DataSource>
ChEMBL

> <Article DOI>
10.1021/jm201547v

> <PMID>
22263837

> <PubChem AID>


> <Patent Number>


> <Authors>
Adeniji, AO; Twenter, BM; Byrns, MC; Jin, Y; Chen, M; Winkler, JD; Penning, TM

> <Institution>
University of Pennsylvania

> <Link to Ligand in BindingDB>
http://www.bindingdb.org/bind/chemsearch/marvin/MolStructure.jsp?monomerid=50385763

> <Link to Ligand-Target Pair in BindingDB>
http://www.bindingdb.org/jsp/dbsearch/PrimarySearch_ki.jsp?energyterm=kJ/mole&tag=pol&polymerid=3022&target=Aldo-keto+reductase+family+1+member+C2&column=ki&startPg=0&Increment=50&submit=Search

> <Link to Ligand-Target Pair in BindingDB>
http://www.bindingdb.org/jsp/dbsearch/PrimarySearch_ki.jsp?energyterm=kJ/mole&tag=r21&monomerid=50385763&enzyme=Aldo-keto+reductase+family+1+member+C2&column=ki&startPg=0&Increment=50&submit=Search

> <Ligand HET ID in PDB>


> <PDB ID(s) for Ligand-Target Complex>


> <PubChem CID>
19749467

> <PubChem SID>
160864846

> <ChEBI ID of Ligand>


> <ChEMBL ID of Ligand>
CHEMBL2043316

> <DrugBank ID of Ligand>


> <IUPHAR_GRAC ID of Ligand>


> <KEGG ID of Ligand>


> <ZINC ID of Ligand>
ZINC84652705

> <Number of Protein Chains in Target (>1 implies a multichain complex)>
1

> <BindingDB Target Chain Sequence>
MDSKYQCVKLNDGHFMPVLGFGTYAPAEVPKSKALEAVKLAIEAGFHHIDSAHVYNNEEQVGLAIRSKIADGSVKREDIFYTSKLWSNSHRPELVRPALERSLKNLQLDYVDLYLIHFPVSVKPGEEVIPKDENGKILFDTVDLCATWEAMEKCKDAGLAKSIGVSNFNHRLLEMILNKPGLKYKPVCNQVECHPYFNQRKLLDFCKSKDIVLVAYSALGSHREEPWVDPNSPVLLEDPVLCALAKKHKRTPALIALRYQLQRGVVVLAKSYNEQRIRQNVQVFEFQLTSEEMKAIDGLNRNVRYLTLDIFAGPPNYPFSDEY

> <PDB ID(s) of Target Chain>
1IHI,1J96,1XJB,2HDJ,4JQ1,4JQ2,4JQ3,4JQ4,4JQA,4JTQ,4JTR,4L1W,4XO6,4XO7,6F2U

> <UniProt (SwissProt) Recommended Name of Target Chain>
Aldo-keto reductase family 1 member C2

> <UniProt (SwissProt) Entry Name of Target Chain>
AK1C2_HUMAN

> <UniProt (SwissProt) Primary ID of Target Chain>
P52895

> <UniProt (SwissProt) Secondary ID(s) of Target Chain>
A8K2N9,B4DKR9,Q14133,Q5SR16,Q7M4N1,Q96A71

> <UniProt (SwissProt) Alternative ID(s) of Target Chain>


> <UniProt (TrEMBL) Submitted Name of Target Chain>


> <UniProt (TrEMBL) Entry Name of Target Chain>


> <UniProt (TrEMBL) Primary ID of Target Chain>


> <UniProt (TrEMBL) Secondary ID(s) of Target Chain>


> <UniProt (TrEMBL) Alternative ID(s) of Target Chain>


$$$$
BindingDB_50385764_mol_1

Vconf v2.0 Academic SN VC001-00000579
 34 35  0  0  0  0  0  0  0  0999 V2000
   16.5580   -7.3900    0.2950 C   0  0  0  0  0  0  0  0  0  0  0
   16.3920   -8.6950   -0.1850 C   0  0  0  0  0  0  0  0  0  0  0
   17.1650   -9.7290    0.3770 C   0  0  0  0  0  0  0  0  0  0  0
   18.1030   -9.4800    1.4090 C   0  0  0  0  0  0  0  0  0  0  0
   18.2580   -8.1500    1.8930 C   0  0  0  0  0  0  0  0  0  0  0
   17.4760   -7.1210    1.3190 C   0  0  0  0  0  0  0  0  0  0  0
   19.1650   -7.7910    2.9260 C   0  0  0  0  0  0  0  0  0  0  0
   19.2800   -6.5130    3.3530 O   0  0  0  0  0  0  0  0  0  0  0
   19.9080   -8.6180    3.5000 O   0  0  0  0  0  0  0  0  0  0  0
   18.8470  -10.4960    1.9520 N   0  0  0  0  0  0  0  0  0  0  0
   18.8490  -11.8020    1.5880 C   0  0  0  0  0  0  0  0  0  0  0
   18.3890  -12.7680    2.5000 C   0  0  0  0  0  0  0  0  0  0  0
   18.4070  -14.1280    2.1530 C   0  0  0  0  0  0  0  0  0  0  0
   18.8950  -14.5280    0.8980 C   0  0  0  0  0  0  0  0  0  0  0
   19.3760  -13.5770   -0.0290 C   0  0  0  0  0  0  0  0  0  0  0
   19.3500  -12.2110    0.3360 C   0  0  0  0  0  0  0  0  0  0  0
   19.8630  -13.9780   -1.2600 C   0  0  0  0  0  0  0  0  0  0  0
   19.9380  -15.2550   -1.5940 O   0  0  0  0  0  0  0  0  0  0  0
   20.2490  -13.1760   -2.0980 O   0  0  0  0  0  0  0  0  0  0  0
   15.4760   -8.8830   -1.1810 O   0  0  0  0  0  0  0  0  0  0  0
   15.2060  -10.1680   -1.7470 C   0  0  0  0  0  0  0  0  0  0  0
   16.0060   -6.6290   -0.1020 H   0  0  0  0  0  0  0  0  0  0  0
   17.0340  -10.6780    0.0320 H   0  0  0  0  0  0  0  0  0  0  0
   17.5680   -6.1570    1.6440 H   0  0  0  0  0  0  0  0  0  0  0
   19.9420   -6.3960    4.0650 H   0  0  0  0  0  0  0  0  0  0  0
   19.4250  -10.2680    2.6950 H   0  0  0  0  0  0  0  0  0  0  0
   18.0380  -12.4840    3.4150 H   0  0  0  0  0  0  0  0  0  0  0
   18.0660  -14.8270    2.8140 H   0  0  0  0  0  0  0  0  0  0  0
   18.9000  -15.5220    0.6640 H   0  0  0  0  0  0  0  0  0  0  0
   19.6980  -11.5050   -0.3140 H   0  0  0  0  0  0  0  0  0  0  0
   20.3060  -15.4050   -2.4890 H   0  0  0  0  0  0  0  0  0  0  0
   14.4410  -10.0600   -2.5160 H   0  0  0  0  0  0  0  0  0  0  0
   16.1090  -10.5780   -2.2030 H   0  0  0  0  0  0  0  0  0  0  0
   14.8400  -10.8510   -0.9790 H   0  0  0  0  0  0  0  0  0  0  0
  1  2  2  0  0  0  0
  1  6  1  0  0  0  0
  1 22  1  0  0  0  0
  2  3  1  0  0  0  0
  2 20  1  0  0  0  0
  3  4  2  0  0  0  0
  3 23  1  0  0  0  0
  4  5  1  0  0  0  0
  4 10  1  0  0  0  0
  5  6  2  0  0  0  0
  5  7  1  0  0  0  0
  6 24  1  0  0  0  0
  7  8  1  0  0  0  0
  7  9  2  0  0  0  0
  8 25  1  0  0  0  0
 10 11  1  0  0  0  0
 10 26  1  0  0  0  0
 11 12  2  0  0  0  0
 11 16  1  0  0  0  0
 12 13  1  0  0  0  0
 12 27  1  0  0  0  0
 13 14  2  0  0  0  0
 13 28  1  0  0  0  0
 14 15  1  0  0  0  0
 14 29  1  0  0  0  0
 15 16  2  0  0  0  0
 15 17  1  0  0  0  0
 16 30  1  0  0  0  0
 17 18  1  0  0  0  0
 17 19  2  0  0  0  0
 18 31  1  0  0  0  0
 20 21  1  0  0  0  0
 21 32  1  0  0  0  0
 21 33  1  0  0  0  0
 21 34  1  0  0  0  0
M  END
> <From>
www.bindingDB.org

> <BindingDB Reactant_set_id>
50940601

> <Ligand InChI>
InChI=1S/C15H13NO5/c1-21-11-5-6-12(15(19)20)13(8-11)16-10-4-2-3-9(7-10)14(17)18/h2-8,16H,1H3,(H,17,18)(H,19,20)

> <Ligand InChI Key>
KZVUSRBUDSSXLX-UHFFFAOYSA-N

> <BindingDB MonomerID>
50385764

> <BindingDB Ligand Name>
CHEMBL2043317

> <Target Name Assigned by Curator or DataSource>
Aldo-keto reductase family 1 member C2

> <Target Source Organism According to Curator or DataSource>
Homo sapiens

> <Ki (nM)>


> <IC50 (nM)>
 8380

> <Kd (nM)>


> <EC50 (nM)>


> <kon (M-1-s-1)>


> <koff (s-1)>


> <pH>


> <Temp C>


> <Curation/DataSource>
ChEMBL

> <Article DOI>
10.1021/jm201547v

> <PMID>
22263837

> <PubChem AID>


> <Patent Number>


> <Authors>
Adeniji, AO; Twenter, BM; Byrns, MC; Jin, Y; Chen, M; Winkler, JD; Penning, TM

> <Institution>
University of Pennsylvania

> <Link to Ligand in BindingDB>
http://www.bindingdb.org/bind/chemsearch/marvin/MolStructure.jsp?monomerid=50385764

> <Link to Ligand-Target Pair in BindingDB>
http://www.bindingdb.org/jsp/dbsearch/PrimarySearch_ki.jsp?energyterm=kJ/mole&tag=pol&polymerid=3022&target=Aldo-keto+reductase+family+1+member+C2&column=ki&startPg=0&Increment=50&submit=Search

> <Link to Ligand-Target Pair in BindingDB>
http://www.bindingdb.org/jsp/dbsearch/PrimarySearch_ki.jsp?energyterm=kJ/mole&tag=r21&monomerid=50385764&enzyme=Aldo-keto+reductase+family+1+member+C2&column=ki&startPg=0&Increment=50&submit=Search

> <Ligand HET ID in PDB>


> <PDB ID(s) for Ligand-Target Complex>


> <PubChem CID>
70690295

> <PubChem SID>
160864847

> <ChEBI ID of Ligand>


> <ChEMBL ID of Ligand>
CHEMBL2043317

> <DrugBank ID of Ligand>


> <IUPHAR_GRAC ID of Ligand>


> <KEGG ID of Ligand>


> <ZINC ID of Ligand>
ZINC84652706

> <Number of Protein Chains in Target (>1 implies a multichain complex)>
1

> <BindingDB Target Chain Sequence>
MDSKYQCVKLNDGHFMPVLGFGTYAPAEVPKSKALEAVKLAIEAGFHHIDSAHVYNNEEQVGLAIRSKIADGSVKREDIFYTSKLWSNSHRPELVRPALERSLKNLQLDYVDLYLIHFPVSVKPGEEVIPKDENGKILFDTVDLCATWEAMEKCKDAGLAKSIGVSNFNHRLLEMILNKPGLKYKPVCNQVECHPYFNQRKLLDFCKSKDIVLVAYSALGSHREEPWVDPNSPVLLEDPVLCALAKKHKRTPALIALRYQLQRGVVVLAKSYNEQRIRQNVQVFEFQLTSEEMKAIDGLNRNVRYLTLDIFAGPPNYPFSDEY

> <PDB ID(s) of Target Chain>
1IHI,1J96,1XJB,2HDJ,4JQ1,4JQ2,4JQ3,4JQ4,4JQA,4JTQ,4JTR,4L1W,4XO6,4XO7,6F2U

> <UniProt (SwissProt) Recommended Name of Target Chain>
Aldo-keto reductase family 1 member C2

> <UniProt (SwissProt) Entry Name of Target Chain>
AK1C2_HUMAN

> <UniProt (SwissProt) Primary ID of Target Chain>
P52895

> <UniProt (SwissProt) Secondary ID(s) of Target Chain>
A8K2N9,B4DKR9,Q14133,Q5SR16,Q7M4N1,Q96A71

> <UniProt (SwissProt) Alternative ID(s) of Target Chain>


> <UniProt (TrEMBL) Submitted Name of Target Chain>


> <UniProt (TrEMBL) Entry Name of Target Chain>


> <UniProt (TrEMBL) Primary ID of Target Chain>


> <UniProt (TrEMBL) Secondary ID(s) of Target Chain>


> <UniProt (TrEMBL) Alternative ID(s) of Target Chain>


$$$$
BindingDB_50385769_mol_1

Vconf v2.0 Academic SN VC001-00000579
 35 36  0  0  0  0  0  0  0  0999 V2000
   17.9990  -14.6080    0.7900 C   0  0  0  0  0  0  0  0  0  0  0
   17.7360  -15.9560    0.5150 C   0  0  0  0  0  0  0  0  0  0  0
   18.6580  -16.9290    0.9450 C   0  0  0  0  0  0  0  0  0  0  0
   19.8410  -16.5790    1.6410 C   0  0  0  0  0  0  0  0  0  0  0
   20.0920  -15.2060    1.9260 C   0  0  0  0  0  0  0  0  0  0  0
   19.1580  -14.2380    1.4880 C   0  0  0  0  0  0  0  0  0  0  0
   21.2390  -14.7460    2.6260 C   0  0  0  0  0  0  0  0  0  0  0
   21.4360  -13.4310    2.8740 O   0  0  0  0  0  0  0  0  0  0  0
   22.1290  -15.5120    3.0560 O   0  0  0  0  0  0  0  0  0  0  0
   20.7330  -17.5360    2.0520 N   0  0  0  0  0  0  0  0  0  0  0
   20.6710  -18.8730    1.8310 C   0  0  0  0  0  0  0  0  0  0  0
   20.7540  -19.4080    0.5300 C   0  0  0  0  0  0  0  0  0  0  0
   20.7120  -20.7980    0.3320 C   0  0  0  0  0  0  0  0  0  0  0
   20.6000  -21.6740    1.4270 C   0  0  0  0  0  0  0  0  0  0  0
   20.5340  -21.1370    2.7300 C   0  0  0  0  0  0  0  0  0  0  0
   20.5750  -19.7460    2.9300 C   0  0  0  0  0  0  0  0  0  0  0
   20.5650  -23.0110    1.1520 O   0  0  0  0  0  0  0  0  0  0  0
   20.4630  -24.0050    2.1750 C   0  0  0  0  0  0  0  0  0  0  0
   16.5840  -16.2450   -0.1600 O   0  0  0  0  0  0  0  0  0  0  0
   16.1960  -17.5830   -0.4840 C   0  0  0  0  0  0  0  0  0  0  0
   17.3420  -13.8900    0.4840 H   0  0  0  0  0  0  0  0  0  0  0
   18.4570  -17.9080    0.7510 H   0  0  0  0  0  0  0  0  0  0  0
   19.3130  -13.2450    1.6730 H   0  0  0  0  0  0  0  0  0  0  0
   22.2630  -13.2450    3.3640 H   0  0  0  0  0  0  0  0  0  0  0
   21.4880  -17.2350    2.5780 H   0  0  0  0  0  0  0  0  0  0  0
   20.8430  -18.7850   -0.2740 H   0  0  0  0  0  0  0  0  0  0  0
   20.7650  -21.1750   -0.6150 H   0  0  0  0  0  0  0  0  0  0  0
   20.4580  -21.7550    3.5380 H   0  0  0  0  0  0  0  0  0  0  0
   20.5300  -19.3710    3.8790 H   0  0  0  0  0  0  0  0  0  0  0
   20.4500  -24.9900    1.7090 H   0  0  0  0  0  0  0  0  0  0  0
   21.3200  -23.9440    2.8480 H   0  0  0  0  0  0  0  0  0  0  0
   19.5400  -23.8710    2.7420 H   0  0  0  0  0  0  0  0  0  0  0
   15.2480  -17.5540   -1.0210 H   0  0  0  0  0  0  0  0  0  0  0
   16.9480  -18.0520   -1.1210 H   0  0  0  0  0  0  0  0  0  0  0
   16.0680  -18.1700    0.4270 H   0  0  0  0  0  0  0  0  0  0  0
  1  2  2  0  0  0  0
  1  6  1  0  0  0  0
  1 21  1  0  0  0  0
  2  3  1  0  0  0  0
  2 19  1  0  0  0  0
  3  4  2  0  0  0  0
  3 22  1  0  0  0  0
  4  5  1  0  0  0  0
  4 10  1  0  0  0  0
  5  6  2  0  0  0  0
  5  7  1  0  0  0  0
  6 23  1  0  0  0  0
  7  8  1  0  0  0  0
  7  9  2  0  0  0  0
  8 24  1  0  0  0  0
 10 11  1  0  0  0  0
 10 25  1  0  0  0  0
 11 12  2  0  0  0  0
 11 16  1  0  0  0  0
 12 13  1  0  0  0  0
 12 26  1  0  0  0  0
 13 14  2  0  0  0  0
 13 27  1  0  0  0  0
 14 15  1  0  0  0  0
 14 17  1  0  0  0  0
 15 16  2  0  0  0  0
 15 28  1  0  0  0  0
 16 29  1  0  0  0  0
 17 18  1  0  0  0  0
 18 30  1  0  0  0  0
 18 31  1  0  0  0  0
 18 32  1  0  0  0  0
 19 20  1  0  0  0  0
 20 33  1  0  0  0  0
 20 34  1  0  0  0  0
 20 35  1  0  0  0  0
M  END
> <From>
www.bindingDB.org

> <BindingDB Reactant_set_id>
50940606

> <Ligand InChI>
InChI=1S/C15H15NO4/c1-19-11-5-3-10(4-6-11)16-14-9-12(20-2)7-8-13(14)15(17)18/h3-9,16H,1-2H3,(H,17,18)

> <Ligand InChI Key>
ONPZNCAHTWFCCX-UHFFFAOYSA-N

> <BindingDB MonomerID>
50385769

> <BindingDB Ligand Name>
CHEMBL2043322

> <Target Name Assigned by Curator or DataSource>
Aldo-keto reductase family 1 member C2

> <Target Source Organism According to Curator or DataSource>
Homo sapiens

> <Ki (nM)>


> <IC50 (nM)>
 910

> <Kd (nM)>


> <EC50 (nM)>


> <kon (M-1-s-1)>


> <koff (s-1)>


> <pH>


> <Temp C>


> <Curation/DataSource>
ChEMBL

> <Article DOI>
10.1021/jm201547v

> <PMID>
22263837

> <PubChem AID>


> <Patent Number>


> <Authors>
Adeniji, AO; Twenter, BM; Byrns, MC; Jin, Y; Chen, M; Winkler, JD; Penning, TM

> <Institution>
University of Pennsylvania

> <Link to Ligand in BindingDB>
http://www.bindingdb.org/bind/chemsearch/marvin/MolStructure.jsp?monomerid=50385769

> <Link to Ligand-Target Pair in BindingDB>
http://www.bindingdb.org/jsp/dbsearch/PrimarySearch_ki.jsp?energyterm=kJ/mole&tag=pol&polymerid=3022&target=Aldo-keto+reductase+family+1+member+C2&column=ki&startPg=0&Increment=50&submit=Search

> <Link to Ligand-Target Pair in BindingDB>
http://www.bindingdb.org/jsp/dbsearch/PrimarySearch_ki.jsp?energyterm=kJ/mole&tag=r21&monomerid=50385769&enzyme=Aldo-keto+reductase+family+1+member+C2&column=ki&startPg=0&Increment=50&submit=Search

> <Ligand HET ID in PDB>


> <PDB ID(s) for Ligand-Target Complex>


> <PubChem CID>
54159801

> <PubChem SID>
160864852

> <ChEBI ID of Ligand>


> <ChEMBL ID of Ligand>
CHEMBL2043322

> <DrugBank ID of Ligand>


> <IUPHAR_GRAC ID of Ligand>


> <KEGG ID of Ligand>


> <ZINC ID of Ligand>
ZINC84704547

> <Number of Protein Chains in Target (>1 implies a multichain complex)>
1

> <BindingDB Target Chain Sequence>
MDSKYQCVKLNDGHFMPVLGFGTYAPAEVPKSKALEAVKLAIEAGFHHIDSAHVYNNEEQVGLAIRSKIADGSVKREDIFYTSKLWSNSHRPELVRPALERSLKNLQLDYVDLYLIHFPVSVKPGEEVIPKDENGKILFDTVDLCATWEAMEKCKDAGLAKSIGVSNFNHRLLEMILNKPGLKYKPVCNQVECHPYFNQRKLLDFCKSKDIVLVAYSALGSHREEPWVDPNSPVLLEDPVLCALAKKHKRTPALIALRYQLQRGVVVLAKSYNEQRIRQNVQVFEFQLTSEEMKAIDGLNRNVRYLTLDIFAGPPNYPFSDEY

> <PDB ID(s) of Target Chain>
1IHI,1J96,1XJB,2HDJ,4JQ1,4JQ2,4JQ3,4JQ4,4JQA,4JTQ,4JTR,4L1W,4XO6,4XO7,6F2U

> <UniProt (SwissProt) Recommended Name of Target Chain>
Aldo-keto reductase family 1 member C2

> <UniProt (SwissProt) Entry Name of Target Chain>
AK1C2_HUMAN

> <UniProt (SwissProt) Primary ID of Target Chain>
P52895

> <UniProt (SwissProt) Secondary ID(s) of Target Chain>
A8K2N9,B4DKR9,Q14133,Q5SR16,Q7M4N1,Q96A71

> <UniProt (SwissProt) Alternative ID(s) of Target Chain>


> <UniProt (TrEMBL) Submitted Name of Target Chain>


> <UniProt (TrEMBL) Entry Name of Target Chain>


> <UniProt (TrEMBL) Primary ID of Target Chain>


> <UniProt (TrEMBL) Secondary ID(s) of Target Chain>


> <UniProt (TrEMBL) Alternative ID(s) of Target Chain>


$$$$
BindingDB_50385770_mol_1

Vconf v2.0 Academic SN VC001-00000579
 34 35  0  0  0  0  0  0  0  0999 V2000
   25.7510  -14.9540    0.9850 C   0  0  0  0  0  0  0  0  0  0  0
   25.4520  -16.2890    0.6820 C   0  0  0  0  0  0  0  0  0  0  0
   26.4030  -17.2830    0.9820 C   0  0  0  0  0  0  0  0  0  0  0
   27.6460  -16.9670    1.5820 C   0  0  0  0  0  0  0  0  0  0  0
   27.9400  -15.6070    1.8850 C   0  0  0  0  0  0  0  0  0  0  0
   26.9760  -14.6180    1.5780 C   0  0  0  0  0  0  0  0  0  0  0
   29.1550  -15.1810    2.4860 C   0  0  0  0  0  0  0  0  0  0  0
   29.3900  -13.8770    2.7580 O   0  0  0  0  0  0  0  0  0  0  0
   30.0740  -15.9680    2.8000 O   0  0  0  0  0  0  0  0  0  0  0
   28.5680  -17.9420    1.8600 N   0  0  0  0  0  0  0  0  0  0  0
   28.4430  -19.2760    1.6520 C   0  0  0  0  0  0  0  0  0  0  0
   27.5390  -20.0520    2.4050 C   0  0  0  0  0  0  0  0  0  0  0
   27.4450  -21.4370    2.1870 C   0  0  0  0  0  0  0  0  0  0  0
   28.2570  -22.0630    1.2210 C   0  0  0  0  0  0  0  0  0  0  0
   29.1680  -21.2860    0.4780 C   0  0  0  0  0  0  0  0  0  0  0
   29.2640  -19.9010    0.6960 C   0  0  0  0  0  0  0  0  0  0  0
   28.1440  -23.5130    1.0030 C   0  0  0  0  0  0  0  0  0  0  0
   24.2400  -16.5430    0.1050 O   0  0  0  0  0  0  0  0  0  0  0
   23.8090  -17.8650   -0.2300 C   0  0  0  0  0  0  0  0  0  0  0
   25.0730  -14.2210    0.7730 H   0  0  0  0  0  0  0  0  0  0  0
   26.1840  -18.2510    0.7510 H   0  0  0  0  0  0  0  0  0  0  0
   27.1580  -13.6340    1.7840 H   0  0  0  0  0  0  0  0  0  0  0
   30.2620  -13.7150    3.1720 H   0  0  0  0  0  0  0  0  0  0  0
   29.4180  -17.6540    2.2230 H   0  0  0  0  0  0  0  0  0  0  0
   26.9500  -19.6090    3.1100 H   0  0  0  0  0  0  0  0  0  0  0
   26.7840  -21.9890    2.7340 H   0  0  0  0  0  0  0  0  0  0  0
   29.7650  -21.7270   -0.2220 H   0  0  0  0  0  0  0  0  0  0  0
   29.9300  -19.3490    0.1540 H   0  0  0  0  0  0  0  0  0  0  0
   28.8340  -23.8510    0.2280 H   0  0  0  0  0  0  0  0  0  0  0
   28.3750  -24.0410    1.9300 H   0  0  0  0  0  0  0  0  0  0  0
   27.1260  -23.7590    0.6970 H   0  0  0  0  0  0  0  0  0  0  0
   22.8150  -17.8090   -0.6750 H   0  0  0  0  0  0  0  0  0  0  0
   24.4920  -18.3150   -0.9520 H   0  0  0  0  0  0  0  0  0  0  0
   23.7600  -18.4850    0.6660 H   0  0  0  0  0  0  0  0  0  0  0
  1  2  2  0  0  0  0
  1  6  1  0  0  0  0
  1 20  1  0  0  0  0
  2  3  1  0  0  0  0
  2 18  1  0  0  0  0
  3  4  2  0  0  0  0
  3 21  1  0  0  0  0
  4  5  1  0  0  0  0
  4 10  1  0  0  0  0
  5  6  2  0  0  0  0
  5  7  1  0  0  0  0
  6 22  1  0  0  0  0
  7  8  1  0  0  0  0
  7  9  2  0  0  0  0
  8 23  1  0  0  0  0
 10 11  1  0  0  0  0
 10 24  1  0  0  0  0
 11 12  2  0  0  0  0
 11 16  1  0  0  0  0
 12 13  1  0  0  0  0
 12 25  1  0  0  0  0
 13 14  2  0  0  0  0
 13 26  1  0  0  0  0
 14 15  1  0  0  0  0
 14 17  1  0  0  0  0
 15 16  2  0  0  0  0
 15 27  1  0  0  0  0
 16 28  1  0  0  0  0
 17 29  1  0  0  0  0
 17 30  1  0  0  0  0
 17 31  1  0  0  0  0
 18 19  1  0  0  0  0
 19 32  1  0  0  0  0
 19 33  1  0  0  0  0
 19 34  1  0  0  0  0
M  END
> <From>
www.bindingDB.org

> <BindingDB Reactant_set_id>
50940607

> <Ligand InChI>
InChI=1S/C15H15NO3/c1-10-3-5-11(6-4-10)16-14-9-12(19-2)7-8-13(14)15(17)18/h3-9,16H,1-2H3,(H,17,18)

> <Ligand InChI Key>
HWDXZIQVHFJAID-UHFFFAOYSA-N

> <BindingDB MonomerID>
50385770

> <BindingDB Ligand Name>
CHEMBL2043323

> <Target Name Assigned by Curator or DataSource>
Aldo-keto reductase family 1 member C2

> <Target Source Organism According to Curator or DataSource>
Homo sapiens

> <Ki (nM)>


> <IC50 (nM)>
 1110

> <Kd (nM)>


> <EC50 (nM)>


> <kon (M-1-s-1)>


> <koff (s-1)>


> <pH>


> <Temp C>


> <Curation/DataSource>
ChEMBL

> <Article DOI>
10.1021/jm201547v

> <PMID>
22263837

> <PubChem AID>


> <Patent Number>


> <Authors>
Adeniji, AO; Twenter, BM; Byrns, MC; Jin, Y; Chen, M; Winkler, JD; Penning, TM

> <Institution>
University of Pennsylvania

> <Link to Ligand in BindingDB>
http://www.bindingdb.org/bind/chemsearch/marvin/MolStructure.jsp?monomerid=50385770

> <Link to Ligand-Target Pair in BindingDB>
http://www.bindingdb.org/jsp/dbsearch/PrimarySearch_ki.jsp?energyterm=kJ/mole&tag=pol&polymerid=3022&target=Aldo-keto+reductase+family+1+member+C2&column=ki&startPg=0&Increment=50&submit=Search

> <Link to Ligand-Target Pair in BindingDB>
http://www.bindingdb.org/jsp/dbsearch/PrimarySearch_ki.jsp?energyterm=kJ/mole&tag=r21&monomerid=50385770&enzyme=Aldo-keto+reductase+family+1+member+C2&column=ki&startPg=0&Increment=50&submit=Search

> <Ligand HET ID in PDB>


> <PDB ID(s) for Ligand-Target Complex>


> <PubChem CID>
19749436

> <PubChem SID>
160864853

> <ChEBI ID of Ligand>


> <ChEMBL ID of Ligand>
CHEMBL2043323

> <DrugBank ID of Ligand>


> <IUPHAR_GRAC ID of Ligand>


> <KEGG ID of Ligand>


> <ZINC ID of Ligand>
ZINC84705793

> <Number of Protein Chains in Target (>1 implies a multichain complex)>
1

> <BindingDB Target Chain Sequence>
MDSKYQCVKLNDGHFMPVLGFGTYAPAEVPKSKALEAVKLAIEAGFHHIDSAHVYNNEEQVGLAIRSKIADGSVKREDIFYTSKLWSNSHRPELVRPALERSLKNLQLDYVDLYLIHFPVSVKPGEEVIPKDENGKILFDTVDLCATWEAMEKCKDAGLAKSIGVSNFNHRLLEMILNKPGLKYKPVCNQVECHPYFNQRKLLDFCKSKDIVLVAYSALGSHREEPWVDPNSPVLLEDPVLCALAKKHKRTPALIALRYQLQRGVVVLAKSYNEQRIRQNVQVFEFQLTSEEMKAIDGLNRNVRYLTLDIFAGPPNYPFSDEY

> <PDB ID(s) of Target Chain>
1IHI,1J96,1XJB,2HDJ,4JQ1,4JQ2,4JQ3,4JQ4,4JQA,4JTQ,4JTR,4L1W,4XO6,4XO7,6F2U

> <UniProt (SwissProt) Recommended Name of Target Chain>
Aldo-keto reductase family 1 member C2

> <UniProt (SwissProt) Entry Name of Target Chain>
AK1C2_HUMAN

> <UniProt (SwissProt) Primary ID of Target Chain>
P52895

> <UniProt (SwissProt) Secondary ID(s) of Target Chain>
A8K2N9,B4DKR9,Q14133,Q5SR16,Q7M4N1,Q96A71

> <UniProt (SwissProt) Alternative ID(s) of Target Chain>


> <UniProt (TrEMBL) Submitted Name of Target Chain>


> <UniProt (TrEMBL) Entry Name of Target Chain>


> <UniProt (TrEMBL) Primary ID of Target Chain>


> <UniProt (TrEMBL) Secondary ID(s) of Target Chain>


> <UniProt (TrEMBL) Alternative ID(s) of Target Chain>


$$$$
BindingDB_50385773_mol_1

Vconf v2.0 Academic SN VC001-00000579
 39 40  0  0  0  0  0  0  0  0999 V2000
    9.1610  -21.7680    0.9160 C   0  0  0  0  0  0  0  0  0  0  0
    9.1640  -22.8480    0.0240 C   0  0  0  0  0  0  0  0  0  0  0
   10.1450  -23.8460    0.1700 C   0  0  0  0  0  0  0  0  0  0  0
   11.1240  -23.7850    1.1910 C   0  0  0  0  0  0  0  0  0  0  0
   11.1100  -22.6840    2.0950 C   0  0  0  0  0  0  0  0  0  0  0
   10.1190  -21.6880    1.9370 C   0  0  0  0  0  0  0  0  0  0  0
   12.0430  -22.5270    3.1540 C   0  0  0  0  0  0  0  0  0  0  0
   11.9930  -21.4610    3.9850 O   0  0  0  0  0  0  0  0  0  0  0
   12.9590  -23.3470    3.3840 O   0  0  0  0  0  0  0  0  0  0  0
   12.0690  -24.7680    1.3240 N   0  0  0  0  0  0  0  0  0  0  0
   12.2180  -25.8620    0.5380 C   0  0  0  0  0  0  0  0  0  0  0
   12.8200  -25.7590   -0.7300 C   0  0  0  0  0  0  0  0  0  0  0
   12.9880  -26.8970   -1.5390 C   0  0  0  0  0  0  0  0  0  0  0
   12.5490  -28.1490   -1.0590 C   0  0  0  0  0  0  0  0  0  0  0
   11.9500  -28.2700    0.2070 C   0  0  0  0  0  0  0  0  0  0  0
   11.7920  -27.1180    1.0060 C   0  0  0  0  0  0  0  0  0  0  0
   11.5510  -29.5190    0.5890 O   0  0  0  0  0  0  0  0  0  0  0
   10.8710  -29.7650    1.8230 C   0  0  0  0  0  0  0  0  0  0  0
   13.5750  -26.7130   -2.7580 O   0  0  0  0  0  0  0  0  0  0  0
   13.8410  -27.7940   -3.6550 C   0  0  0  0  0  0  0  0  0  0  0
    8.2000  -22.8630   -0.9440 O   0  0  0  0  0  0  0  0  0  0  0
    8.0900  -23.9200   -1.9020 C   0  0  0  0  0  0  0  0  0  0  0
    8.4570  -21.0350    0.8240 H   0  0  0  0  0  0  0  0  0  0  0
   10.1420  -24.6320   -0.4790 H   0  0  0  0  0  0  0  0  0  0  0
   10.0830  -20.8870    2.5700 H   0  0  0  0  0  0  0  0  0  0  0
   12.6910  -21.4650    4.6710 H   0  0  0  0  0  0  0  0  0  0  0
   12.6910  -24.6890    2.0620 H   0  0  0  0  0  0  0  0  0  0  0
   13.1370  -24.8500   -1.0680 H   0  0  0  0  0  0  0  0  0  0  0
   12.6630  -28.9830   -1.6350 H   0  0  0  0  0  0  0  0  0  0  0
   11.3610  -27.1900    1.9270 H   0  0  0  0  0  0  0  0  0  0  0
   10.6440  -30.8280    1.8940 H   0  0  0  0  0  0  0  0  0  0  0
   11.5020  -29.4820    2.6670 H   0  0  0  0  0  0  0  0  0  0  0
    9.9370  -29.2020    1.8580 H   0  0  0  0  0  0  0  0  0  0  0
   14.3130  -27.3980   -4.5540 H   0  0  0  0  0  0  0  0  0  0  0
   14.5180  -28.5130   -3.1900 H   0  0  0  0  0  0  0  0  0  0  0
   12.9120  -28.2930   -3.9350 H   0  0  0  0  0  0  0  0  0  0  0
    7.2510  -23.7080   -2.5640 H   0  0  0  0  0  0  0  0  0  0  0
    9.0010  -23.9870   -2.4980 H   0  0  0  0  0  0  0  0  0  0  0
    7.9100  -24.8700   -1.3970 H   0  0  0  0  0  0  0  0  0  0  0
  1  2  2  0  0  0  0
  1  6  1  0  0  0  0
  1 23  1  0  0  0  0
  2  3  1  0  0  0  0
  2 21  1  0  0  0  0
  3  4  2  0  0  0  0
  3 24  1  0  0  0  0
  4  5  1  0  0  0  0
  4 10  1  0  0  0  0
  5  6  2  0  0  0  0
  5  7  1  0  0  0  0
  6 25  1  0  0  0  0
  7  8  1  0  0  0  0
  7  9  2  0  0  0  0
  8 26  1  0  0  0  0
 10 11  1  0  0  0  0
 10 27  1  0  0  0  0
 11 12  2  0  0  0  0
 11 16  1  0  0  0  0
 12 13  1  0  0  0  0
 12 28  1  0  0  0  0
 13 14  2  0  0  0  0
 13 19  1  0  0  0  0
 14 15  1  0  0  0  0
 14 29  1  0  0  0  0
 15 16  2  0  0  0  0
 15 17  1  0  0  0  0
 16 30  1  0  0  0  0
 17 18  1  0  0  0  0
 18 31  1  0  0  0  0
 18 32  1  0  0  0  0
 18 33  1  0  0  0  0
 19 20  1  0  0  0  0
 20 34  1  0  0  0  0
 20 35  1  0  0  0  0
 20 36  1  0  0  0  0
 21 22  1  0  0  0  0
 22 37  1  0  0  0  0
 22 38  1  0  0  0  0
 22 39  1  0  0  0  0
M  END
> <From>
www.bindingDB.org

> <BindingDB Reactant_set_id>
50940610

> <Ligand InChI>
InChI=1S/C16H17NO5/c1-20-11-4-5-14(16(18)19)15(9-11)17-10-6-12(21-2)8-13(7-10)22-3/h4-9,17H,1-3H3,(H,18,19)

> <Ligand InChI Key>
DJUBOUQZDJBSQW-UHFFFAOYSA-N

> <BindingDB MonomerID>
50385773

> <BindingDB Ligand Name>
CHEMBL2040885

> <Target Name Assigned by Curator or DataSource>
Aldo-keto reductase family 1 member C2

> <Target Source Organism According to Curator or DataSource>
Homo sapiens

> <Ki (nM)>


> <IC50 (nM)>
 6780

> <Kd (nM)>


> <EC50 (nM)>


> <kon (M-1-s-1)>


> <koff (s-1)>


> <pH>


> <Temp C>


> <Curation/DataSource>
ChEMBL

> <Article DOI>
10.1021/jm201547v

> <PMID>
22263837

> <PubChem AID>


> <Patent Number>


> <Authors>
Adeniji, AO; Twenter, BM; Byrns, MC; Jin, Y; Chen, M; Winkler, JD; Penning, TM

> <Institution>
University of Pennsylvania

> <Link to Ligand in BindingDB>
http://www.bindingdb.org/bind/chemsearch/marvin/MolStructure.jsp?monomerid=50385773

> <Link to Ligand-Target Pair in BindingDB>
http://www.bindingdb.org/jsp/dbsearch/PrimarySearch_ki.jsp?energyterm=kJ/mole&tag=pol&polymerid=3022&target=Aldo-keto+reductase+family+1+member+C2&column=ki&startPg=0&Increment=50&submit=Search

> <Link to Ligand-Target Pair in BindingDB>
http://www.bindingdb.org/jsp/dbsearch/PrimarySearch_ki.jsp?energyterm=kJ/mole&tag=r21&monomerid=50385773&enzyme=Aldo-keto+reductase+family+1+member+C2&column=ki&startPg=0&Increment=50&submit=Search

> <Ligand HET ID in PDB>


> <PDB ID(s) for Ligand-Target Complex>


> <PubChem CID>
70688201

> <PubChem SID>
160864856

> <ChEBI ID of Ligand>


> <ChEMBL ID of Ligand>
CHEMBL2040885

> <DrugBank ID of Ligand>


> <IUPHAR_GRAC ID of Ligand>


> <KEGG ID of Ligand>


> <ZINC ID of Ligand>
ZINC84708299

> <Number of Protein Chains in Target (>1 implies a multichain complex)>
1

> <BindingDB Target Chain Sequence>
MDSKYQCVKLNDGHFMPVLGFGTYAPAEVPKSKALEAVKLAIEAGFHHIDSAHVYNNEEQVGLAIRSKIADGSVKREDIFYTSKLWSNSHRPELVRPALERSLKNLQLDYVDLYLIHFPVSVKPGEEVIPKDENGKILFDTVDLCATWEAMEKCKDAGLAKSIGVSNFNHRLLEMILNKPGLKYKPVCNQVECHPYFNQRKLLDFCKSKDIVLVAYSALGSHREEPWVDPNSPVLLEDPVLCALAKKHKRTPALIALRYQLQRGVVVLAKSYNEQRIRQNVQVFEFQLTSEEMKAIDGLNRNVRYLTLDIFAGPPNYPFSDEY

> <PDB ID(s) of Target Chain>
1IHI,1J96,1XJB,2HDJ,4JQ1,4JQ2,4JQ3,4JQ4,4JQA,4JTQ,4JTR,4L1W,4XO6,4XO7,6F2U

> <UniProt (SwissProt) Recommended Name of Target Chain>
Aldo-keto reductase family 1 member C2

> <UniProt (SwissProt) Entry Name of Target Chain>
AK1C2_HUMAN

> <UniProt (SwissProt) Primary ID of Target Chain>
P52895

> <UniProt (SwissProt) Secondary ID(s) of Target Chain>
A8K2N9,B4DKR9,Q14133,Q5SR16,Q7M4N1,Q96A71

> <UniProt (SwissProt) Alternative ID(s) of Target Chain>


> <UniProt (TrEMBL) Submitted Name of Target Chain>


> <UniProt (TrEMBL) Entry Name of Target Chain>


> <UniProt (TrEMBL) Primary ID of Target Chain>


> <UniProt (TrEMBL) Secondary ID(s) of Target Chain>


> <UniProt (TrEMBL) Alternative ID(s) of Target Chain>


$$$$
BindingDB_50385774_mol_1

Vconf v2.0 Academic SN VC001-00000579
 37 38  0  0  0  0  0  0  0  0999 V2000
   16.2850  -22.6600    0.9880 C   0  0  0  0  0  0  0  0  0  0  0
   16.0150  -23.9970    0.6700 C   0  0  0  0  0  0  0  0  0  0  0
   16.9850  -24.9740    0.9660 C   0  0  0  0  0  0  0  0  0  0  0
   18.2190  -24.6380    1.5740 C   0  0  0  0  0  0  0  0  0  0  0
   18.4830  -23.2750    1.8930 C   0  0  0  0  0  0  0  0  0  0  0
   17.5000  -22.3040    1.5910 C   0  0  0  0  0  0  0  0  0  0  0
   19.6860  -22.8320    2.5040 C   0  0  0  0  0  0  0  0  0  0  0
   19.8900  -21.5270    2.7940 O   0  0  0  0  0  0  0  0  0  0  0
   20.6210  -23.6040    2.8110 O   0  0  0  0  0  0  0  0  0  0  0
   19.1540  -25.6000    1.8520 N   0  0  0  0  0  0  0  0  0  0  0
   19.0390  -26.9290    1.6190 C   0  0  0  0  0  0  0  0  0  0  0
   18.3620  -27.7560    2.5340 C   0  0  0  0  0  0  0  0  0  0  0
   18.2440  -29.1390    2.2950 C   0  0  0  0  0  0  0  0  0  0  0
   18.8130  -29.6880    1.1290 C   0  0  0  0  0  0  0  0  0  0  0
   19.5000  -28.8710    0.2100 C   0  0  0  0  0  0  0  0  0  0  0
   19.6130  -27.4900    0.4630 C   0  0  0  0  0  0  0  0  0  0  0
   20.0850  -29.4700   -0.9990 C   0  0  0  0  0  0  0  0  0  0  0
   17.5290  -29.9850    3.2630 C   0  0  0  0  0  0  0  0  0  0  0
   14.8120  -24.2700    0.0850 O   0  0  0  0  0  0  0  0  0  0  0
   14.4240  -25.5930   -0.2960 C   0  0  0  0  0  0  0  0  0  0  0
   15.5930  -21.9390    0.7800 H   0  0  0  0  0  0  0  0  0  0  0
   16.7860  -25.9460    0.7320 H   0  0  0  0  0  0  0  0  0  0  0
   17.6600  -21.3190    1.8090 H   0  0  0  0  0  0  0  0  0  0  0
   20.7560  -21.3510    3.2180 H   0  0  0  0  0  0  0  0  0  0  0
   19.9890  -25.3090    2.2480 H   0  0  0  0  0  0  0  0  0  0  0
   17.9520  -27.3490    3.3760 H   0  0  0  0  0  0  0  0  0  0  0
   18.7300  -30.6890    0.9490 H   0  0  0  0  0  0  0  0  0  0  0
   20.1080  -26.8900   -0.1970 H   0  0  0  0  0  0  0  0  0  0  0
   20.5820  -28.7160   -1.6120 H   0  0  0  0  0  0  0  0  0  0  0
   20.8170  -30.2270   -0.7140 H   0  0  0  0  0  0  0  0  0  0  0
   19.2990  -29.9400   -1.5920 H   0  0  0  0  0  0  0  0  0  0  0
   17.5160  -31.0280    2.9410 H   0  0  0  0  0  0  0  0  0  0  0
   18.0210  -29.9250    4.2340 H   0  0  0  0  0  0  0  0  0  0  0
   16.5000  -29.6370    3.3620 H   0  0  0  0  0  0  0  0  0  0  0
   13.4300  -25.5550   -0.7400 H   0  0  0  0  0  0  0  0  0  0  0
   15.1230  -25.9950   -1.0320 H   0  0  0  0  0  0  0  0  0  0  0
   14.3960  -26.2460    0.5780 H   0  0  0  0  0  0  0  0  0  0  0
  1  2  2  0  0  0  0
  1  6  1  0  0  0  0
  1 21  1  0  0  0  0
  2  3  1  0  0  0  0
  2 19  1  0  0  0  0
  3  4  2  0  0  0  0
  3 22  1  0  0  0  0
  4  5  1  0  0  0  0
  4 10  1  0  0  0  0
  5  6  2  0  0  0  0
  5  7  1  0  0  0  0
  6 23  1  0  0  0  0
  7  8  1  0  0  0  0
  7  9  2  0  0  0  0
  8 24  1  0  0  0  0
 10 11  1  0  0  0  0
 10 25  1  0  0  0  0
 11 12  2  0  0  0  0
 11 16  1  0  0  0  0
 12 13  1  0  0  0  0
 12 26  1  0  0  0  0
 13 14  2  0  0  0  0
 13 18  1  0  0  0  0
 14 15  1  0  0  0  0
 14 27  1  0  0  0  0
 15 16  2  0  0  0  0
 15 17  1  0  0  0  0
 16 28  1  0  0  0  0
 17 29  1  0  0  0  0
 17 30  1  0  0  0  0
 17 31  1  0  0  0  0
 18 32  1  0  0  0  0
 18 33  1  0  0  0  0
 18 34  1  0  0  0  0
 19 20  1  0  0  0  0
 20 35  1  0  0  0  0
 20 36  1  0  0  0  0
 20 37  1  0  0  0  0
M  END
> <From>
www.bindingDB.org

> <BindingDB Reactant_set_id>
50940611

> <Ligand InChI>
InChI=1S/C16H17NO3/c1-10-6-11(2)8-12(7-10)17-15-9-13(20-3)4-5-14(15)16(18)19/h4-9,17H,1-3H3,(H,18,19)

> <Ligand InChI Key>
ZKKUXHWIBMYUGT-UHFFFAOYSA-N

> <BindingDB MonomerID>
50385774

> <BindingDB Ligand Name>
CHEMBL2040886

> <Target Name Assigned by Curator or DataSource>
Aldo-keto reductase family 1 member C2

> <Target Source Organism According to Curator or DataSource>
Homo sapiens

> <Ki (nM)>


> <IC50 (nM)>
 3240

> <Kd (nM)>


> <EC50 (nM)>


> <kon (M-1-s-1)>


> <koff (s-1)>


> <pH>


> <Temp C>


> <Curation/DataSource>
ChEMBL

> <Article DOI>
10.1021/jm201547v

> <PMID>
22263837

> <PubChem AID>


> <Patent Number>


> <Authors>
Adeniji, AO; Twenter, BM; Byrns, MC; Jin, Y; Chen, M; Winkler, JD; Penning, TM

> <Institution>
University of Pennsylvania

> <Link to Ligand in BindingDB>
http://www.bindingdb.org/bind/chemsearch/marvin/MolStructure.jsp?monomerid=50385774

> <Link to Ligand-Target Pair in BindingDB>
http://www.bindingdb.org/jsp/dbsearch/PrimarySearch_ki.jsp?energyterm=kJ/mole&tag=pol&polymerid=3022&target=Aldo-keto+reductase+family+1+member+C2&column=ki&startPg=0&Increment=50&submit=Search

> <Link to Ligand-Target Pair in BindingDB>
http://www.bindingdb.org/jsp/dbsearch/PrimarySearch_ki.jsp?energyterm=kJ/mole&tag=r21&monomerid=50385774&enzyme=Aldo-keto+reductase+family+1+member+C2&column=ki&startPg=0&Increment=50&submit=Search

> <Ligand HET ID in PDB>


> <PDB ID(s) for Ligand-Target Complex>


> <PubChem CID>
70694447

> <PubChem SID>
160864857

> <ChEBI ID of Ligand>


> <ChEMBL ID of Ligand>
CHEMBL2040886

> <DrugBank ID of Ligand>


> <IUPHAR_GRAC ID of Ligand>


> <KEGG ID of Ligand>


> <ZINC ID of Ligand>
ZINC84708302

> <Number of Protein Chains in Target (>1 implies a multichain complex)>
1

> <BindingDB Target Chain Sequence>
MDSKYQCVKLNDGHFMPVLGFGTYAPAEVPKSKALEAVKLAIEAGFHHIDSAHVYNNEEQVGLAIRSKIADGSVKREDIFYTSKLWSNSHRPELVRPALERSLKNLQLDYVDLYLIHFPVSVKPGEEVIPKDENGKILFDTVDLCATWEAMEKCKDAGLAKSIGVSNFNHRLLEMILNKPGLKYKPVCNQVECHPYFNQRKLLDFCKSKDIVLVAYSALGSHREEPWVDPNSPVLLEDPVLCALAKKHKRTPALIALRYQLQRGVVVLAKSYNEQRIRQNVQVFEFQLTSEEMKAIDGLNRNVRYLTLDIFAGPPNYPFSDEY

> <PDB ID(s) of Target Chain>
1IHI,1J96,1XJB,2HDJ,4JQ1,4JQ2,4JQ3,4JQ4,4JQA,4JTQ,4JTR,4L1W,4XO6,4XO7,6F2U

> <UniProt (SwissProt) Recommended Name of Target Chain>
Aldo-keto reductase family 1 member C2

> <UniProt (SwissProt) Entry Name of Target Chain>
AK1C2_HUMAN

> <UniProt (SwissProt) Primary ID of Target Chain>
P52895

> <UniProt (SwissProt) Secondary ID(s) of Target Chain>
A8K2N9,B4DKR9,Q14133,Q5SR16,Q7M4N1,Q96A71

> <UniProt (SwissProt) Alternative ID(s) of Target Chain>


> <UniProt (TrEMBL) Submitted Name of Target Chain>


> <UniProt (TrEMBL) Entry Name of Target Chain>


> <UniProt (TrEMBL) Primary ID of Target Chain>


> <UniProt (TrEMBL) Secondary ID(s) of Target Chain>


> <UniProt (TrEMBL) Alternative ID(s) of Target Chain>


$$$$
BindingDB_50385775_mol_1

Vconf v2.0 Academic SN VC001-00000579
 32 33  0  0  0  0  0  0  0  0999 V2000
    7.6660   -1.4220    0.6190 C   0  0  0  0  0  0  0  0  0  0  0
    7.7790   -2.6230   -0.1070 C   0  0  0  0  0  0  0  0  0  0  0
    8.8360   -3.5120    0.1330 C   0  0  0  0  0  0  0  0  0  0  0
    9.8250   -3.2330    1.1040 C   0  0  0  0  0  0  0  0  0  0  0
    9.7260   -2.0270    1.8540 C   0  0  0  0  0  0  0  0  0  0  0
    8.6490   -1.1450    1.5940 C   0  0  0  0  0  0  0  0  0  0  0
   10.6590   -1.6510    2.8580 C   0  0  0  0  0  0  0  0  0  0  0
   10.5300   -0.4940    3.5460 O   0  0  0  0  0  0  0  0  0  0  0
   11.6470   -2.3520    3.1690 O   0  0  0  0  0  0  0  0  0  0  0
   10.8560   -4.1040    1.3420 N   0  0  0  0  0  0  0  0  0  0  0
   11.1190   -5.2720    0.7040 C   0  0  0  0  0  0  0  0  0  0  0
   11.4590   -5.3050   -0.6640 C   0  0  0  0  0  0  0  0  0  0  0
   11.7570   -6.5270   -1.2910 C   0  0  0  0  0  0  0  0  0  0  0
   11.7290   -7.7210   -0.5510 C   0  0  0  0  0  0  0  0  0  0  0
   11.4080   -7.6930    0.8170 C   0  0  0  0  0  0  0  0  0  0  0
   11.1090   -6.4700    1.4440 C   0  0  0  0  0  0  0  0  0  0  0
    6.5920   -0.5280    0.3720 C   0  0  0  0  0  0  0  0  0  0  0
    5.7300   -0.7950   -0.4980 O   0  0  0  0  0  0  0  0  0  0  0
    6.4230    0.7370    1.1020 C   0  0  0  0  0  0  0  0  0  0  0
    7.0870   -2.8640   -0.8190 H   0  0  0  0  0  0  0  0  0  0  0
    8.8720   -4.3750   -0.4090 H   0  0  0  0  0  0  0  0  0  0  0
    8.5780   -0.2780    2.1290 H   0  0  0  0  0  0  0  0  0  0  0
   11.2360   -0.3520    4.2090 H   0  0  0  0  0  0  0  0  0  0  0
   11.4610   -3.8800    2.0640 H   0  0  0  0  0  0  0  0  0  0  0
   11.4900   -4.4390   -1.2040 H   0  0  0  0  0  0  0  0  0  0  0
   11.9970   -6.5470   -2.2820 H   0  0  0  0  0  0  0  0  0  0  0
   11.9460   -8.6090   -1.0050 H   0  0  0  0  0  0  0  0  0  0  0
   11.3930   -8.5590    1.3560 H   0  0  0  0  0  0  0  0  0  0  0
   10.8810   -6.4560    2.4390 H   0  0  0  0  0  0  0  0  0  0  0
    5.5300    1.2540    0.7500 H   0  0  0  0  0  0  0  0  0  0  0
    6.3150    0.5370    2.1690 H   0  0  0  0  0  0  0  0  0  0  0
    7.2890    1.3790    0.9370 H   0  0  0  0  0  0  0  0  0  0  0
  1  2  2  0  0  0  0
  1  6  1  0  0  0  0
  1 17  1  0  0  0  0
  2  3  1  0  0  0  0
  2 20  1  0  0  0  0
  3  4  2  0  0  0  0
  3 21  1  0  0  0  0
  4  5  1  0  0  0  0
  4 10  1  0  0  0  0
  5  6  2  0  0  0  0
  5  7  1  0  0  0  0
  6 22  1  0  0  0  0
  7  8  1  0  0  0  0
  7  9  2  0  0  0  0
  8 23  1  0  0  0  0
 10 11  1  0  0  0  0
 10 24  1  0  0  0  0
 11 12  2  0  0  0  0
 11 16  1  0  0  0  0
 12 13  1  0  0  0  0
 12 25  1  0  0  0  0
 13 14  2  0  0  0  0
 13 26  1  0  0  0  0
 14 15  1  0  0  0  0
 14 27  1  0  0  0  0
 15 16  2  0  0  0  0
 15 28  1  0  0  0  0
 16 29  1  0  0  0  0
 17 18  2  0  0  0  0
 17 19  1  0  0  0  0
 19 30  1  0  0  0  0
 19 31  1  0  0  0  0
 19 32  1  0  0  0  0
M  END
> <From>
www.bindingDB.org

> <BindingDB Reactant_set_id>
50940612

> <Ligand InChI>
InChI=1S/C15H13NO3/c1-10(17)11-7-8-14(13(9-11)15(18)19)16-12-5-3-2-4-6-12/h2-9,16H,1H3,(H,18,19)

> <Ligand InChI Key>
SBAGGUYDJWCIRX-UHFFFAOYSA-N

> <BindingDB MonomerID>
50385775

> <BindingDB Ligand Name>
CHEMBL2040888

> <Target Name Assigned by Curator or DataSource>
Aldo-keto reductase family 1 member C2

> <Target Source Organism According to Curator or DataSource>
Homo sapiens

> <Ki (nM)>


> <IC50 (nM)>
 3810

> <Kd (nM)>


> <EC50 (nM)>


> <kon (M-1-s-1)>


> <koff (s-1)>


> <pH>


> <Temp C>


> <Curation/DataSource>
ChEMBL

> <Article DOI>
10.1021/jm201547v

> <PMID>
22263837

> <PubChem AID>


> <Patent Number>


> <Authors>
Adeniji, AO; Twenter, BM; Byrns, MC; Jin, Y; Chen, M; Winkler, JD; Penning, TM

> <Institution>
University of Pennsylvania

> <Link to Ligand in BindingDB>
http://www.bindingdb.org/bind/chemsearch/marvin/MolStructure.jsp?monomerid=50385775

> <Link to Ligand-Target Pair in BindingDB>
http://www.bindingdb.org/jsp/dbsearch/PrimarySearch_ki.jsp?energyterm=kJ/mole&tag=pol&polymerid=3022&target=Aldo-keto+reductase+family+1+member+C2&column=ki&startPg=0&Increment=50&submit=Search

> <Link to Ligand-Target Pair in BindingDB>
http://www.bindingdb.org/jsp/dbsearch/PrimarySearch_ki.jsp?energyterm=kJ/mole&tag=r21&monomerid=50385775&enzyme=Aldo-keto+reductase+family+1+member+C2&column=ki&startPg=0&Increment=50&submit=Search

> <Ligand HET ID in PDB>


> <PDB ID(s) for Ligand-Target Complex>


> <PubChem CID>
13521073

> <PubChem SID>
160864858

> <ChEBI ID of Ligand>


> <ChEMBL ID of Ligand>
CHEMBL2040888

> <DrugBank ID of Ligand>


> <IUPHAR_GRAC ID of Ligand>


> <KEGG ID of Ligand>


> <ZINC ID of Ligand>
ZINC84708307

> <Number of Protein Chains in Target (>1 implies a multichain complex)>
1

> <BindingDB Target Chain Sequence>
MDSKYQCVKLNDGHFMPVLGFGTYAPAEVPKSKALEAVKLAIEAGFHHIDSAHVYNNEEQVGLAIRSKIADGSVKREDIFYTSKLWSNSHRPELVRPALERSLKNLQLDYVDLYLIHFPVSVKPGEEVIPKDENGKILFDTVDLCATWEAMEKCKDAGLAKSIGVSNFNHRLLEMILNKPGLKYKPVCNQVECHPYFNQRKLLDFCKSKDIVLVAYSALGSHREEPWVDPNSPVLLEDPVLCALAKKHKRTPALIALRYQLQRGVVVLAKSYNEQRIRQNVQVFEFQLTSEEMKAIDGLNRNVRYLTLDIFAGPPNYPFSDEY

> <PDB ID(s) of Target Chain>
1IHI,1J96,1XJB,2HDJ,4JQ1,4JQ2,4JQ3,4JQ4,4JQA,4JTQ,4JTR,4L1W,4XO6,4XO7,6F2U

> <UniProt (SwissProt) Recommended Name of Target Chain>
Aldo-keto reductase family 1 member C2

> <UniProt (SwissProt) Entry Name of Target Chain>
AK1C2_HUMAN

> <UniProt (SwissProt) Primary ID of Target Chain>
P52895

> <UniProt (SwissProt) Secondary ID(s) of Target Chain>
A8K2N9,B4DKR9,Q14133,Q5SR16,Q7M4N1,Q96A71

> <UniProt (SwissProt) Alternative ID(s) of Target Chain>


> <UniProt (TrEMBL) Submitted Name of Target Chain>


> <UniProt (TrEMBL) Entry Name of Target Chain>


> <UniProt (TrEMBL) Primary ID of Target Chain>


> <UniProt (TrEMBL) Secondary ID(s) of Target Chain>


> <UniProt (TrEMBL) Alternative ID(s) of Target Chain>


$$$$
BindingDB_50385777_mol_1

Vconf v2.0 Academic SN VC001-00000579
 37 38  0  0  0  0  0  0  0  0999 V2000
   18.2160   -1.2750    0.5740 C   0  0  0  0  0  0  0  0  0  0  0
   17.8960   -2.6290    0.3590 C   0  0  0  0  0  0  0  0  0  0  0
   18.7810   -3.6440    0.7450 C   0  0  0  0  0  0  0  0  0  0  0
   20.0120   -3.3540    1.3770 C   0  0  0  0  0  0  0  0  0  0  0
   20.3560   -1.9890    1.5920 C   0  0  0  0  0  0  0  0  0  0  0
   19.4520   -0.9790    1.1860 C   0  0  0  0  0  0  0  0  0  0  0
   21.5540   -1.5780    2.2340 C   0  0  0  0  0  0  0  0  0  0  0
   21.8530   -0.2710    2.4090 O   0  0  0  0  0  0  0  0  0  0  0
   22.3870   -2.3860    2.6990 O   0  0  0  0  0  0  0  0  0  0  0
   20.9150   -4.3440    1.6920 N   0  0  0  0  0  0  0  0  0  0  0
   20.7530   -5.6930    1.8900 C   0  0  0  0  0  0  0  0  0  0  0
   19.5070   -6.2080    2.3230 C   0  0  0  0  0  0  0  0  0  0  0
   19.3290   -7.5690    2.6000 C   0  0  0  0  0  0  0  0  0  0  0
   20.4070   -8.4480    2.4700 C   0  0  0  0  0  0  0  0  0  0  0
   21.6540   -7.9590    2.0610 C   0  0  0  0  0  0  0  0  0  0  0
   21.8600   -6.5880    1.7610 C   0  0  0  0  0  0  0  0  0  0  0
   17.3300   -0.2360    0.1850 C   0  0  0  0  0  0  0  0  0  0  0
   17.6310    0.9640    0.3840 O   0  0  0  0  0  0  0  0  0  0  0
   16.0340   -0.4930   -0.4610 C   0  0  0  0  0  0  0  0  0  0  0
   23.1630   -6.2170    1.2970 C   0  0  0  0  0  0  0  0  0  0  0
   23.5680   -4.8710    0.8730 C   0  0  0  0  0  0  0  0  0  0  0
   24.0660   -7.0810    1.1970 O   0  0  0  0  0  0  0  0  0  0  0
   17.0200   -2.8920   -0.0950 H   0  0  0  0  0  0  0  0  0  0  0
   18.5300   -4.6050    0.5160 H   0  0  0  0  0  0  0  0  0  0  0
   19.6940    0.0020    1.3460 H   0  0  0  0  0  0  0  0  0  0  0
   22.6980   -0.1210    2.8790 H   0  0  0  0  0  0  0  0  0  0  0
   21.8230   -4.0310    1.7930 H   0  0  0  0  0  0  0  0  0  0  0
   18.7180   -5.5850    2.4880 H   0  0  0  0  0  0  0  0  0  0  0
   18.4210   -7.9150    2.9140 H   0  0  0  0  0  0  0  0  0  0  0
   20.2870   -9.4410    2.6760 H   0  0  0  0  0  0  0  0  0  0  0
   22.4210   -8.6300    1.9750 H   0  0  0  0  0  0  0  0  0  0  0
   15.5260    0.4510   -0.6660 H   0  0  0  0  0  0  0  0  0  0  0
   16.1880   -1.0200   -1.4030 H   0  0  0  0  0  0  0  0  0  0  0
   15.4060   -1.0950    0.1960 H   0  0  0  0  0  0  0  0  0  0  0
   24.5720   -4.9020    0.4470 H   0  0  0  0  0  0  0  0  0  0  0
   22.8850   -4.4890    0.1140 H   0  0  0  0  0  0  0  0  0  0  0
   23.5890   -4.2070    1.7340 H   0  0  0  0  0  0  0  0  0  0  0
  1  2  2  0  0  0  0
  1  6  1  0  0  0  0
  1 17  1  0  0  0  0
  2  3  1  0  0  0  0
  2 23  1  0  0  0  0
  3  4  2  0  0  0  0
  3 24  1  0  0  0  0
  4  5  1  0  0  0  0
  4 10  1  0  0  0  0
  5  6  2  0  0  0  0
  5  7  1  0  0  0  0
  6 25  1  0  0  0  0
  7  8  1  0  0  0  0
  7  9  2  0  0  0  0
  8 26  1  0  0  0  0
 10 11  1  0  0  0  0
 10 27  1  0  0  0  0
 11 12  2  0  0  0  0
 11 16  1  0  0  0  0
 12 13  1  0  0  0  0
 12 28  1  0  0  0  0
 13 14  2  0  0  0  0
 13 29  1  0  0  0  0
 14 15  1  0  0  0  0
 14 30  1  0  0  0  0
 15 16  2  0  0  0  0
 15 31  1  0  0  0  0
 16 20  1  0  0  0  0
 17 18  2  0  0  0  0
 17 19  1  0  0  0  0
 19 32  1  0  0  0  0
 19 33  1  0  0  0  0
 19 34  1  0  0  0  0
 20 21  1  0  0  0  0
 20 22  2  0  0  0  0
 21 35  1  0  0  0  0
 21 36  1  0  0  0  0
 21 37  1  0  0  0  0
M  END
> <From>
www.bindingDB.org

> <BindingDB Reactant_set_id>
50940614

> <Ligand InChI>
InChI=1S/C17H15NO4/c1-10(19)12-7-8-16(14(9-12)17(21)22)18-15-6-4-3-5-13(15)11(2)20/h3-9,18H,1-2H3,(H,21,22)

> <Ligand InChI Key>
CVZONNBMFYSCJS-UHFFFAOYSA-N

> <BindingDB MonomerID>
50385777

> <BindingDB Ligand Name>
CHEMBL2040890

> <Target Name Assigned by Curator or DataSource>
Aldo-keto reductase family 1 member C2

> <Target Source Organism According to Curator or DataSource>
Homo sapiens

> <Ki (nM)>


> <IC50 (nM)>
 12700

> <Kd (nM)>


> <EC50 (nM)>


> <kon (M-1-s-1)>


> <koff (s-1)>


> <pH>


> <Temp C>


> <Curation/DataSource>
ChEMBL

> <Article DOI>
10.1021/jm201547v

> <PMID>
22263837

> <PubChem AID>


> <Patent Number>


> <Authors>
Adeniji, AO; Twenter, BM; Byrns, MC; Jin, Y; Chen, M; Winkler, JD; Penning, TM

> <Institution>
University of Pennsylvania

> <Link to Ligand in BindingDB>
http://www.bindingdb.org/bind/chemsearch/marvin/MolStructure.jsp?monomerid=50385777

> <Link to Ligand-Target Pair in BindingDB>
http://www.bindingdb.org/jsp/dbsearch/PrimarySearch_ki.jsp?energyterm=kJ/mole&tag=pol&polymerid=3022&target=Aldo-keto+reductase+family+1+member+C2&column=ki&startPg=0&Increment=50&submit=Search

> <Link to Ligand-Target Pair in BindingDB>
http://www.bindingdb.org/jsp/dbsearch/PrimarySearch_ki.jsp?energyterm=kJ/mole&tag=r21&monomerid=50385777&enzyme=Aldo-keto+reductase+family+1+member+C2&column=ki&startPg=0&Increment=50&submit=Search

> <Ligand HET ID in PDB>


> <PDB ID(s) for Ligand-Target Complex>


> <PubChem CID>
70694449

> <PubChem SID>
160864860

> <ChEBI ID of Ligand>


> <ChEMBL ID of Ligand>
CHEMBL2040890

> <DrugBank ID of Ligand>


> <IUPHAR_GRAC ID of Ligand>


> <KEGG ID of Ligand>


> <ZINC ID of Ligand>
ZINC84708310

> <Number of Protein Chains in Target (>1 implies a multichain complex)>
1

> <BindingDB Target Chain Sequence>
MDSKYQCVKLNDGHFMPVLGFGTYAPAEVPKSKALEAVKLAIEAGFHHIDSAHVYNNEEQVGLAIRSKIADGSVKREDIFYTSKLWSNSHRPELVRPALERSLKNLQLDYVDLYLIHFPVSVKPGEEVIPKDENGKILFDTVDLCATWEAMEKCKDAGLAKSIGVSNFNHRLLEMILNKPGLKYKPVCNQVECHPYFNQRKLLDFCKSKDIVLVAYSALGSHREEPWVDPNSPVLLEDPVLCALAKKHKRTPALIALRYQLQRGVVVLAKSYNEQRIRQNVQVFEFQLTSEEMKAIDGLNRNVRYLTLDIFAGPPNYPFSDEY

> <PDB ID(s) of Target Chain>
1IHI,1J96,1XJB,2HDJ,4JQ1,4JQ2,4JQ3,4JQ4,4JQA,4JTQ,4JTR,4L1W,4XO6,4XO7,6F2U

> <UniProt (SwissProt) Recommended Name of Target Chain>
Aldo-keto reductase family 1 member C2

> <UniProt (SwissProt) Entry Name of Target Chain>
AK1C2_HUMAN

> <UniProt (SwissProt) Primary ID of Target Chain>
P52895

> <UniProt (SwissProt) Secondary ID(s) of Target Chain>
A8K2N9,B4DKR9,Q14133,Q5SR16,Q7M4N1,Q96A71

> <UniProt (SwissProt) Alternative ID(s) of Target Chain>


> <UniProt (TrEMBL) Submitted Name of Target Chain>


> <UniProt (TrEMBL) Entry Name of Target Chain>


> <UniProt (TrEMBL) Primary ID of Target Chain>


> <UniProt (TrEMBL) Secondary ID(s) of Target Chain>


> <UniProt (TrEMBL) Alternative ID(s) of Target Chain>


$$$$
