BindingDB_50242742_mol_1

Vconf v2.0 Academic SN VC001-00000579
 82 86  0  0  0  0  0  0  0  0999 V2000
    3.2500  -27.3000    0.8420 C   0  0  0  0  0  0  0  0  0  0  0
    2.1100  -27.2050   -0.1130 N   0  0  0  0  0  0  0  0  0  0  0
    1.4760  -25.8670   -0.0390 C   0  0  0  0  0  0  0  0  0  0  0
    0.3100  -25.7470   -1.0310 C   0  0  0  0  0  0  0  0  0  0  0
   -0.7090  -26.7670   -0.7300 N   0  0  0  0  0  0  0  0  0  0  0
   -0.0970  -28.1010   -0.8510 C   0  0  0  0  0  0  0  0  0  0  0
    1.0720  -28.2340    0.1360 C   0  0  0  0  0  0  0  0  0  0  0
   -1.8380  -26.6440   -1.6680 C   0  0  0  0  0  0  0  0  0  0  0
    3.7510  -28.7530    1.0070 C   0  0  0  0  0  0  0  0  0  0  0
    5.0320  -28.8380    1.8490 C   0  0  0  0  0  0  0  0  0  0  0
    6.0200  -27.9670    1.3020 N   0  0  0  0  0  0  0  0  0  0  0
    5.6710  -26.5880    1.2240 C   0  0  0  0  0  0  0  0  0  0  0
    4.4250  -26.4290    0.3410 C   0  0  0  0  0  0  0  0  0  0  0
    7.2000  -28.4440    0.8140 C   0  0  0  0  0  0  0  0  0  0  0
    8.0050  -29.2950    1.5950 C   0  0  0  0  0  0  0  0  0  0  0
    9.1690  -29.8620    1.0550 C   0  0  0  0  0  0  0  0  0  0  0
    9.5490  -29.5810   -0.2710 C   0  0  0  0  0  0  0  0  0  0  0
    8.7890  -28.6670   -1.0410 C   0  0  0  0  0  0  0  0  0  0  0
    7.6120  -28.1260   -0.4950 C   0  0  0  0  0  0  0  0  0  0  0
   10.5870  -30.2830   -0.7820 N   0  0  0  0  0  0  0  0  0  0  0
    9.0750  -28.2860   -2.3210 O   0  0  0  0  0  0  0  0  0  0  0
   10.4120  -28.1490   -2.8090 C   0  0  0  0  0  0  0  0  0  0  0
   10.4110  -31.3640   -1.5790 C   0  0  0  0  0  0  0  0  0  0  0
    9.1820  -31.7550   -1.9930 N   0  0  0  0  0  0  0  0  0  0  0
    8.9580  -32.8350   -2.7790 C   0  0  0  0  0  0  0  0  0  0  0
   10.0690  -33.6100   -3.1730 C   0  0  0  0  0  0  0  0  0  0  0
   11.3420  -33.1890   -2.7510 C   0  0  0  0  0  0  0  0  0  0  0
   11.4810  -32.0880   -1.9750 N   0  0  0  0  0  0  0  0  0  0  0
    9.9280  -35.0060   -4.1230 Cl  0  0  0  0  0  0  0  0  0  0  0
    7.6980  -33.1970   -3.1600 N   0  0  0  0  0  0  0  0  0  0  0
    6.4970  -32.5690   -2.9700 C   0  0  0  0  0  0  0  0  0  0  0
    6.3350  -31.2570   -2.4610 C   0  0  0  0  0  0  0  0  0  0  0
    5.0610  -30.6840   -2.3200 C   0  0  0  0  0  0  0  0  0  0  0
    3.9200  -31.4140   -2.6780 C   0  0  0  0  0  0  0  0  0  0  0
    4.0590  -32.7160   -3.1820 C   0  0  0  0  0  0  0  0  0  0  0
    5.3350  -33.2920   -3.3340 C   0  0  0  0  0  0  0  0  0  0  0
    5.4410  -34.9240   -3.9310 S   0  0  0  0  0  0  0  0  0  0  0
    6.1100  -35.9380   -2.5910 C   0  0  0  0  0  0  0  0  0  0  0
    3.9840  -35.5050   -4.1970 O   0  0  0  0  0  0  0  0  0  0  0
    6.5730  -34.9590   -5.0480 O   0  0  0  0  0  0  0  0  0  0  0
    5.1710  -35.9130   -1.3760 C   0  0  0  0  0  0  0  0  0  0  0
    6.2940  -37.3790   -3.0840 C   0  0  0  0  0  0  0  0  0  0  0
    2.9380  -26.9390    1.8230 H   0  0  0  0  0  0  0  0  0  0  0
    2.1940  -25.0910   -0.2940 H   0  0  0  0  0  0  0  0  0  0  0
    1.1040  -25.6870    0.9710 H   0  0  0  0  0  0  0  0  0  0  0
   -0.1280  -24.7530   -0.9360 H   0  0  0  0  0  0  0  0  0  0  0
    0.6890  -25.8740   -2.0470 H   0  0  0  0  0  0  0  0  0  0  0
   -0.8390  -28.8660   -0.6210 H   0  0  0  0  0  0  0  0  0  0  0
    0.2720  -28.2590   -1.8660 H   0  0  0  0  0  0  0  0  0  0  0
    0.6950  -28.1470    1.1560 H   0  0  0  0  0  0  0  0  0  0  0
    1.4890  -29.2300   -0.0080 H   0  0  0  0  0  0  0  0  0  0  0
   -2.5900  -27.3990   -1.4360 H   0  0  0  0  0  0  0  0  0  0  0
   -2.2920  -25.6570   -1.5680 H   0  0  0  0  0  0  0  0  0  0  0
   -1.4990  -26.7800   -2.6960 H   0  0  0  0  0  0  0  0  0  0  0
    3.9440  -29.1800    0.0230 H   0  0  0  0  0  0  0  0  0  0  0
    2.9910  -29.3500    1.5110 H   0  0  0  0  0  0  0  0  0  0  0
    4.8110  -28.5330    2.8730 H   0  0  0  0  0  0  0  0  0  0  0
    5.3610  -29.8790    1.8630 H   0  0  0  0  0  0  0  0  0  0  0
    5.4500  -26.2190    2.2260 H   0  0  0  0  0  0  0  0  0  0  0
    6.4790  -25.9820    0.8080 H   0  0  0  0  0  0  0  0  0  0  0
    4.6720  -26.7170   -0.6820 H   0  0  0  0  0  0  0  0  0  0  0
    4.1480  -25.3770    0.3530 H   0  0  0  0  0  0  0  0  0  0  0
    7.7290  -29.5270    2.5500 H   0  0  0  0  0  0  0  0  0  0  0
    9.7190  -30.5130    1.6180 H   0  0  0  0  0  0  0  0  0  0  0
    7.0390  -27.5020   -1.0650 H   0  0  0  0  0  0  0  0  0  0  0
   11.4870  -30.0540   -0.5050 H   0  0  0  0  0  0  0  0  0  0  0
   10.3830  -27.5850   -3.7410 H   0  0  0  0  0  0  0  0  0  0  0
   11.0300  -27.6090   -2.0900 H   0  0  0  0  0  0  0  0  0  0  0
   10.8500  -29.1240   -3.0130 H   0  0  0  0  0  0  0  0  0  0  0
   12.1770  -33.7110   -3.0210 H   0  0  0  0  0  0  0  0  0  0  0
    7.6500  -34.0390   -3.6370 H   0  0  0  0  0  0  0  0  0  0  0
    7.1360  -30.6860   -2.2120 H   0  0  0  0  0  0  0  0  0  0  0
    4.9690  -29.7320   -1.9650 H   0  0  0  0  0  0  0  0  0  0  0
    2.9940  -31.0000   -2.5750 H   0  0  0  0  0  0  0  0  0  0  0
    3.2260  -33.2460   -3.4390 H   0  0  0  0  0  0  0  0  0  0  0
    7.0830  -35.5470   -2.2920 H   0  0  0  0  0  0  0  0  0  0  0
    5.5720  -36.5510   -0.5870 H   0  0  0  0  0  0  0  0  0  0  0
    5.0840  -34.8940   -1.0000 H   0  0  0  0  0  0  0  0  0  0  0
    4.1850  -36.2750   -1.6670 H   0  0  0  0  0  0  0  0  0  0  0
    6.7090  -37.9920   -2.2830 H   0  0  0  0  0  0  0  0  0  0  0
    5.3310  -37.7870   -3.3930 H   0  0  0  0  0  0  0  0  0  0  0
    6.9770  -37.3870   -3.9330 H   0  0  0  0  0  0  0  0  0  0  0
  1  2  1  0  0  0  0
  1  9  1  0  0  0  0
  1 13  1  0  0  0  0
  1 43  1  0  0  0  0
  2  3  1  0  0  0  0
  2  7  1  0  0  0  0
  3  4  1  0  0  0  0
  3 44  1  0  0  0  0
  3 45  1  0  0  0  0
  4  5  1  0  0  0  0
  4 46  1  0  0  0  0
  4 47  1  0  0  0  0
  5  6  1  0  0  0  0
  5  8  1  0  0  0  0
  6  7  1  0  0  0  0
  6 48  1  0  0  0  0
  6 49  1  0  0  0  0
  7 50  1  0  0  0  0
  7 51  1  0  0  0  0
  8 52  1  0  0  0  0
  8 53  1  0  0  0  0
  8 54  1  0  0  0  0
  9 10  1  0  0  0  0
  9 55  1  0  0  0  0
  9 56  1  0  0  0  0
 10 11  1  0  0  0  0
 10 57  1  0  0  0  0
 10 58  1  0  0  0  0
 11 12  1  0  0  0  0
 11 14  1  0  0  0  0
 12 13  1  0  0  0  0
 12 59  1  0  0  0  0
 12 60  1  0  0  0  0
 13 61  1  0  0  0  0
 13 62  1  0  0  0  0
 14 15  2  0  0  0  0
 14 19  1  0  0  0  0
 15 16  1  0  0  0  0
 15 63  1  0  0  0  0
 16 17  2  0  0  0  0
 16 64  1  0  0  0  0
 17 18  1  0  0  0  0
 17 20  1  0  0  0  0
 18 19  2  0  0  0  0
 18 21  1  0  0  0  0
 19 65  1  0  0  0  0
 20 23  1  0  0  0  0
 20 66  1  0  0  0  0
 21 22  1  0  0  0  0
 22 67  1  0  0  0  0
 22 68  1  0  0  0  0
 22 69  1  0  0  0  0
 23 24  2  0  0  0  0
 23 28  1  0  0  0  0
 24 25  1  0  0  0  0
 25 26  2  0  0  0  0
 25 30  1  0  0  0  0
 26 27  1  0  0  0  0
 26 29  1  0  0  0  0
 27 28  2  0  0  0  0
 27 70  1  0  0  0  0
 30 31  1  0  0  0  0
 30 71  1  0  0  0  0
 31 32  2  0  0  0  0
 31 36  1  0  0  0  0
 32 33  1  0  0  0  0
 32 72  1  0  0  0  0
 33 34  2  0  0  0  0
 33 73  1  0  0  0  0
 34 35  1  0  0  0  0
 34 74  1  0  0  0  0
 35 36  2  0  0  0  0
 35 75  1  0  0  0  0
 36 37  1  0  0  0  0
 37 38  1  0  0  0  0
 37 39  2  0  0  0  0
 37 40  2  0  0  0  0
 38 41  1  0  0  0  0
 38 42  1  0  0  0  0
 38 76  1  0  0  0  0
 41 77  1  0  0  0  0
 41 78  1  0  0  0  0
 41 79  1  0  0  0  0
 42 80  1  0  0  0  0
 42 81  1  0  0  0  0
 42 82  1  0  0  0  0
M  END
> <From>
www.bindingDB.org

> <BindingDB Reactant_set_id>
50090152

> <Ligand InChI>
InChI=1S/C30H40ClN7O3S/c1-21(2)42(39,40)28-8-6-5-7-26(28)33-29-24(31)20-32-30(35-29)34-25-10-9-23(19-27(25)41-4)37-13-11-22(12-14-37)38-17-15-36(3)16-18-38/h5-10,19-22H,11-18H2,1-4H3,(H2,32,33,34,35)

> <Ligand InChI Key>
QQWUGDVOUVUTOY-UHFFFAOYSA-N

> <BindingDB MonomerID>
50242742

> <BindingDB Ligand Name>
5-CHLORO-N-[2-METHOXY-4-[4-(4-METHYLPIPERAZIN-1-YL)PIPERIDIN-1-YL]PHENYL]-N'-(2-PROPAN-2-YLSULFONYLPHENYL)PYRIMIDINE-2,4-DIAMINE::5-chloro-N4-(2-(isopropylsulfonyl)phenyl)-N2-(2-methoxy-4-(4-(4-methylpiperazin-1-yl)piperidin-1-yl)phenyl)pyrimidine-2,4-diamine::CHEMBL509032::NVP-TAE684::TAE-684::TAE684

> <Target Name Assigned by Curator or DataSource>
ALK tyrosine kinase receptor

> <Target Source Organism According to Curator or DataSource>
Homo sapiens

> <Ki (nM)>


> <IC50 (nM)>
 1.6

> <Kd (nM)>


> <EC50 (nM)>


> <kon (M-1-s-1)>


> <koff (s-1)>


> <pH>


> <Temp C>


> <Curation/DataSource>
ChEMBL

> <Article DOI>
10.1021/ml400373j

> <PMID>
24900831

> <PubChem AID>


> <Patent Number>


> <Authors>
Liu, Z; Ai, J; Peng, X; Song, Z; Wu, K; Zhang, J; Yao, Q; Chen, Y; Ji, Y; Yang, Y; Geng, M; Zhang, A

> <Institution>
State Key Laboratory of Drug Research

> <Link to Ligand in BindingDB>
http://www.bindingdb.org/bind/chemsearch/marvin/MolStructure.jsp?monomerid=50242742

> <Link to Ligand-Target Pair in BindingDB>
http://www.bindingdb.org/jsp/dbsearch/PrimarySearch_ki.jsp?energyterm=kJ/mole&tag=pol&polymerid=5809&target=ALK+tyrosine+kinase+receptor&column=ki&startPg=0&Increment=50&submit=Search

> <Link to Ligand-Target Pair in BindingDB>
http://www.bindingdb.org/jsp/dbsearch/PrimarySearch_ki.jsp?energyterm=kJ/mole&tag=r21&monomerid=50242742&enzyme=ALK+tyrosine+kinase+receptor&column=ki&startPg=0&Increment=50&submit=Search

> <Ligand HET ID in PDB>
GUI

> <PDB ID(s) for Ligand-Target Complex>
2XB7,4E93,5JZN

> <PubChem CID>
16038120

> <PubChem SID>
104099207

> <ChEBI ID of Ligand>


> <ChEMBL ID of Ligand>
CHEMBL509032

> <DrugBank ID of Ligand>


> <IUPHAR_GRAC ID of Ligand>
5714

> <KEGG ID of Ligand>


> <ZINC ID of Ligand>
ZINC55760827

> <Number of Protein Chains in Target (>1 implies a multichain complex)>
1

> <BindingDB Target Chain Sequence>
MGAIGLLWLLPLLLSTAAVGSGMGTGQRAGSPAAGPPLQPREPLSYSRLQRKSLAVDFVVPSLFRVYARDLLLPPSSSELKAGRPEARGSLALDCAPLLRLLGPAPGVSWTAGSPAPAEARTLSRVLKGGSVRKLRRAKQLVLELGEEAILEGCVGPPGEAAVGLLQFNLSELFSWWIRQGEGRLRIRLMPEKKASEVGREGRLSAAIRASQPRLLFQIFGTGHSSLESPTNMPSPSPDYFTWNLTWIMKDSFPFLSHRSRYGLECSFDFPCELEYSPPLHDLRNQSWSWRRIPSEEASQMDLLDGPGAERSKEMPRGSFLLLNTSADSKHTILSPWMRSSSEHCTLAVSVHRHLQPSGRYIAQLLPHNEAAREILLMPTPGKHGWTVLQGRIGRPDNPFRVALEYISSGNRSLSAVDFFALKNCSEGTSPGSKMALQSSFTCWNGTVLQLGQACDFHQDCAQGEDESQMCRKLPVGFYCNFEDGFCGWTQGTLSPHTPQWQVRTLKDARFQDHQDHALLLSTTDVPASESATVTSATFPAPIKSSPCELRMSWLIRGVLRGNVSLVLVENKTGKEQGRMVWHVAAYEGLSLWQWMVLPLLDVSDRFWLQMVAWWGQGSRAIVAFDNISISLDCYLTISGEDKILQNTAPKSRNLFERNPNKELKPGENSPRQTPIFDPTVHWLFTTCGASGPHGPTQAQCNNAYQNSNLSVEVGSEGPLKGIQIWKVPATDTYSISGYGAAGGKGGKNTMMRSHGVSVLGIFNLEKDDMLYILVGQQGEDACPSTNQLIQKVCIGENNVIEEEIRVNRSVHEWAGGGGGGGGATYVFKMKDGVPVPLIIAAGGGGRAYGAKTDTFHPERLENNSSVLGLNGNSGAAGGGGGWNDNTSLLWAGKSLQEGATGGHSCPQAMKKWGWETRGGFGGGGGGCSSGGGGGGYIGGNAASNNDPEMDGEDGVSFISPLGILYTPALKVMEGHGEVNIKHYLNCSHCEVDECHMDPESHKVICFCDHGTVLAEDGVSCIVSPTPEPHLPLSLILSVVTSALVAALVLAFSGIMIVYRRKHQELQAMQMELQSPEYKLSKLRTSTIMTDYNPNYCFAGKTSSISDLKEVPRKNITLIRGLGHGAFGEVYEGQVSGMPNDPSPLQVAVKTLPEVCSEQDELDFLMEALIISKFNHQNIVRCIGVSLQSLPRFILLELMAGGDLKSFLRETRPRPSQPSSLAMLDLLHVARDIACGCQYLEENHFIHRDIAARNCLLTCPGPGRVAKIGDFGMARDIYRASYYRKGGCAMLPVKWMPPEAFMEGIFTSKTDTWSFGVLLWEIFSLGYMPYPSKSNQEVLEFVTSGGRMDPPKNCPGPVYRIMTQCWQHQPEDRPNFAIILERIEYCTQDPDVINTALPIEYGPLVEEEEKVPVRPKDPEGVPPLLVSQQAKREEERSPAAPPPLPTTSSGKAAKKPTAAEISVRVPRGPAVEGGHVNMAFSQSNPPSELHKVHGSRNKPTSLWNPTYGSWFTEKPTKKNNPIAKKEPHDRGNLGLEGSCTVPPNVATGRLPGASLLLEPSSLTANMKEVPLFRLRHFPCGNVNYGYQQQGLPLEAATAPGAGHYEDTILKSKNSMNQPGP

> <PDB ID(s) of Target Chain>
2XB7,2XBA,3AOX,5FTO,5FTQ,6E0R,6EBW,6EDL,6MX8

> <UniProt (SwissProt) Recommended Name of Target Chain>
ALK tyrosine kinase receptor

> <UniProt (SwissProt) Entry Name of Target Chain>
ALK_HUMAN

> <UniProt (SwissProt) Primary ID of Target Chain>
Q9UM73

> <UniProt (SwissProt) Secondary ID(s) of Target Chain>
Q4ZFX9,Q53QQ6,Q53RZ4,Q59FI3,Q9Y4K6

> <UniProt (SwissProt) Alternative ID(s) of Target Chain>


> <UniProt (TrEMBL) Submitted Name of Target Chain>


> <UniProt (TrEMBL) Entry Name of Target Chain>


> <UniProt (TrEMBL) Primary ID of Target Chain>


> <UniProt (TrEMBL) Secondary ID(s) of Target Chain>


> <UniProt (TrEMBL) Alternative ID(s) of Target Chain>


$$$$
00092001.cdx

Vconf v2.0 Academic SN VC001-00000579
 81 84  0  0  0  0  0  0  0  0999 V2000
   -1.3130    2.2190   -0.0290 C   0  0  0  0  0  0  0  0  0  0  0
   -2.6160    2.0440    0.5020 C   0  0  0  0  0  0  0  0  0  0  0
   -3.2320    0.7780    0.4650 C   0  0  0  0  0  0  0  0  0  0  0
   -2.5650   -0.3280   -0.0770 C   0  0  0  0  0  0  0  0  0  0  0
   -1.2740   -0.1730   -0.5970 C   0  0  0  0  0  0  0  0  0  0  0
   -0.6570    1.0880   -0.5770 C   0  0  0  0  0  0  0  0  0  0  0
   -3.5370    3.3550    1.1940 S   0  0  0  0  0  0  0  0  0  0  0
   -4.4350    4.1860   -0.1390 C   0  0  0  0  0  0  0  0  0  0  0
   -5.2510    5.3440    0.4550 C   0  0  0  0  0  0  0  0  0  0  0
   -3.4890    4.7210   -1.2260 C   0  0  0  0  0  0  0  0  0  0  0
   -4.7250    2.7300    2.0480 O   0  0  0  0  0  0  0  0  0  0  0
   -2.6070    4.4660    1.8510 O   0  0  0  0  0  0  0  0  0  0  0
   -0.7830    3.4810    0.0310 N   0  0  0  0  0  0  0  0  0  0  0
    0.3870    3.9850   -0.4620 C   0  0  0  0  0  0  0  0  0  0  0
    1.2350    3.2370   -1.2090 N   0  0  0  0  0  0  0  0  0  0  0
    2.3840    3.7120   -1.7470 C   0  0  0  0  0  0  0  0  0  0  0
    2.7070    5.0070   -1.5310 N   0  0  0  0  0  0  0  0  0  0  0
    1.9190    5.8190   -0.7890 C   0  0  0  0  0  0  0  0  0  0  0
    0.7270    5.3340   -0.2230 C   0  0  0  0  0  0  0  0  0  0  0
   -0.2200    6.3860    0.7100 Cl  0  0  0  0  0  0  0  0  0  0  0
    3.2050    2.9430   -2.4970 N   0  0  0  0  0  0  0  0  0  0  0
    2.9530    1.6410   -2.7690 C   0  0  0  0  0  0  0  0  0  0  0
    2.4330    1.2920   -4.0270 C   0  0  0  0  0  0  0  0  0  0  0
    2.0870   -0.0420   -4.3230 C   0  0  0  0  0  0  0  0  0  0  0
    2.2820   -1.0510   -3.3470 C   0  0  0  0  0  0  0  0  0  0  0
    2.8330   -0.6900   -2.0990 C   0  0  0  0  0  0  0  0  0  0  0
    3.1630    0.6450   -1.7980 C   0  0  0  0  0  0  0  0  0  0  0
    1.5160   -0.3480   -5.6480 C   0  0  0  0  0  0  0  0  0  0  0
    3.6840    1.0120   -0.5920 O   0  0  0  0  0  0  0  0  0  0  0
    3.2200    0.4180    0.6240 C   0  0  0  0  0  0  0  0  0  0  0
    1.9180   -2.4730   -3.5890 C   0  0  0  0  0  0  0  0  0  0  0
    3.1490   -3.4030   -3.5300 C   0  0  0  0  0  0  0  0  0  0  0
    2.7190   -4.8640   -3.7410 C   0  0  0  0  0  0  0  0  0  0  0
    1.7180   -5.2190   -2.7810 N   0  0  0  0  0  0  0  0  0  0  0
    0.5180   -4.4420   -2.8310 C   0  0  0  0  0  0  0  0  0  0  0
    0.8440   -2.9610   -2.5910 C   0  0  0  0  0  0  0  0  0  0  0
    1.9210   -6.2270   -1.8760 C   0  0  0  0  0  0  0  0  0  0  0
    3.0010   -6.8600   -1.8770 O   0  0  0  0  0  0  0  0  0  0  0
    0.9270   -6.6110   -0.8580 C   0  0  0  0  0  0  0  0  0  0  0
   -0.3230   -7.1330   -1.4560 N   0  0  0  0  0  0  0  0  0  0  0
   -0.1230   -8.4700   -2.0510 C   0  0  0  0  0  0  0  0  0  0  0
   -1.3650   -7.2230   -0.4180 C   0  0  0  0  0  0  0  0  0  0  0
   -4.1760    0.6600    0.8320 H   0  0  0  0  0  0  0  0  0  0  0
   -3.0180   -1.2410   -0.0950 H   0  0  0  0  0  0  0  0  0  0  0
   -0.7850   -0.9760   -0.9910 H   0  0  0  0  0  0  0  0  0  0  0
    0.2800    1.1540   -0.9610 H   0  0  0  0  0  0  0  0  0  0  0
   -5.1210    3.4720   -0.5940 H   0  0  0  0  0  0  0  0  0  0  0
   -5.8420    5.8230   -0.3270 H   0  0  0  0  0  0  0  0  0  0  0
   -5.9200    4.9540    1.2230 H   0  0  0  0  0  0  0  0  0  0  0
   -4.5780    6.0770    0.9040 H   0  0  0  0  0  0  0  0  0  0  0
   -4.0610    5.2770   -1.9700 H   0  0  0  0  0  0  0  0  0  0  0
   -2.7460    5.3800   -0.7780 H   0  0  0  0  0  0  0  0  0  0  0
   -2.9870    3.8890   -1.7200 H   0  0  0  0  0  0  0  0  0  0  0
   -1.3300    4.1330    0.4920 H   0  0  0  0  0  0  0  0  0  0  0
    2.2040    6.7890   -0.6460 H   0  0  0  0  0  0  0  0  0  0  0
    3.9960    3.3530   -2.8790 H   0  0  0  0  0  0  0  0  0  0  0
    2.2810    2.0220   -4.7250 H   0  0  0  0  0  0  0  0  0  0  0
    2.9870   -1.4100   -1.3950 H   0  0  0  0  0  0  0  0  0  0  0
    0.5110   -0.7520   -5.5260 H   0  0  0  0  0  0  0  0  0  0  0
    1.4530    0.5440   -6.2730 H   0  0  0  0  0  0  0  0  0  0  0
    2.1410   -1.0810   -6.1590 H   0  0  0  0  0  0  0  0  0  0  0
    3.7310    0.8900    1.4620 H   0  0  0  0  0  0  0  0  0  0  0
    2.1460    0.5810    0.7300 H   0  0  0  0  0  0  0  0  0  0  0
    3.4330   -0.6510    0.6440 H   0  0  0  0  0  0  0  0  0  0  0
    1.4910   -2.5910   -4.5850 H   0  0  0  0  0  0  0  0  0  0  0
    3.6470   -3.3230   -2.5630 H   0  0  0  0  0  0  0  0  0  0  0
    3.8550   -3.1270   -4.3160 H   0  0  0  0  0  0  0  0  0  0  0
    2.3030   -4.9740   -4.7430 H   0  0  0  0  0  0  0  0  0  0  0
    3.6070   -5.4950   -3.6750 H   0  0  0  0  0  0  0  0  0  0  0
   -0.2180   -4.7450   -2.0880 H   0  0  0  0  0  0  0  0  0  0  0
    0.0630   -4.5540   -3.8170 H   0  0  0  0  0  0  0  0  0  0  0
    1.1940   -2.8480   -1.5630 H   0  0  0  0  0  0  0  0  0  0  0
   -0.0670   -2.3750   -2.7230 H   0  0  0  0  0  0  0  0  0  0  0
    1.3560   -7.3650   -0.1950 H   0  0  0  0  0  0  0  0  0  0  0
    0.7080   -5.7230   -0.2610 H   0  0  0  0  0  0  0  0  0  0  0
   -1.0610   -8.8240   -2.4810 H   0  0  0  0  0  0  0  0  0  0  0
    0.6230   -8.4220   -2.8450 H   0  0  0  0  0  0  0  0  0  0  0
    0.2100   -9.1790   -1.2910 H   0  0  0  0  0  0  0  0  0  0  0
   -2.3000   -7.5710   -0.8600 H   0  0  0  0  0  0  0  0  0  0  0
   -1.0610   -7.9160    0.3690 H   0  0  0  0  0  0  0  0  0  0  0
   -1.5360   -6.2390    0.0210 H   0  0  0  0  0  0  0  0  0  0  0
  1  2  2  0  0  0  0
  1  6  1  0  0  0  0
  1 13  1  0  0  0  0
  2  3  1  0  0  0  0
  2  7  1  0  0  0  0
  3  4  2  0  0  0  0
  3 43  1  0  0  0  0
  4  5  1  0  0  0  0
  4 44  1  0  0  0  0
  5  6  2  0  0  0  0
  5 45  1  0  0  0  0
  6 46  1  0  0  0  0
  7  8  1  0  0  0  0
  7 11  2  0  0  0  0
  7 12  2  0  0  0  0
  8  9  1  0  0  0  0
  8 10  1  0  0  0  0
  8 47  1  0  0  0  0
  9 48  1  0  0  0  0
  9 49  1  0  0  0  0
  9 50  1  0  0  0  0
 10 51  1  0  0  0  0
 10 52  1  0  0  0  0
 10 53  1  0  0  0  0
 13 14  1  0  0  0  0
 13 54  1  0  0  0  0
 14 15  2  0  0  0  0
 14 19  1  0  0  0  0
 15 16  1  0  0  0  0
 16 17  2  0  0  0  0
 16 21  1  0  0  0  0
 17 18  1  0  0  0  0
 18 19  2  0  0  0  0
 18 55  1  0  0  0  0
 19 20  1  0  0  0  0
 21 22  1  0  0  0  0
 21 56  1  0  0  0  0
 22 23  2  0  0  0  0
 22 27  1  0  0  0  0
 23 24  1  0  0  0  0
 23 57  1  0  0  0  0
 24 25  2  0  0  0  0
 24 28  1  0  0  0  0
 25 26  1  0  0  0  0
 25 31  1  0  0  0  0
 26 27  2  0  0  0  0
 26 58  1  0  0  0  0
 27 29  1  0  0  0  0
 28 59  1  0  0  0  0
 28 60  1  0  0  0  0
 28 61  1  0  0  0  0
 29 30  1  0  0  0  0
 30 62  1  0  0  0  0
 30 63  1  0  0  0  0
 30 64  1  0  0  0  0
 31 32  1  0  0  0  0
 31 36  1  0  0  0  0
 31 65  1  0  0  0  0
 32 33  1  0  0  0  0
 32 66  1  0  0  0  0
 32 67  1  0  0  0  0
 33 34  1  0  0  0  0
 33 68  1  0  0  0  0
 33 69  1  0  0  0  0
 34 35  1  0  0  0  0
 34 37  1  0  0  0  0
 35 36  1  0  0  0  0
 35 70  1  0  0  0  0
 35 71  1  0  0  0  0
 36 72  1  0  0  0  0
 36 73  1  0  0  0  0
 37 38  2  0  0  0  0
 37 39  1  0  0  0  0
 39 40  1  0  0  0  0
 39 74  1  0  0  0  0
 39 75  1  0  0  0  0
 40 41  1  0  0  0  0
 40 42  1  0  0  0  0
 41 76  1  0  0  0  0
 41 77  1  0  0  0  0
 41 78  1  0  0  0  0
 42 79  1  0  0  0  0
 42 80  1  0  0  0  0
 42 81  1  0  0  0  0
M  END
> <From>
www.bindingDB.org

> <BindingDB Reactant_set_id>
226242

> <Ligand InChI>
InChI=1S/C30H39ClN6O4S/c1-19(2)42(39,40)27-10-8-7-9-24(27)33-29-23(31)17-32-30(35-29)34-25-15-20(3)22(16-26(25)41-6)21-11-13-37(14-12-21)28(38)18-36(4)5/h7-10,15-17,19,21H,11-14,18H2,1-6H3,(H2,32,33,34,35)

> <Ligand InChI Key>
WDSNTGJGKMCZDG-UHFFFAOYSA-N

> <BindingDB MonomerID>
107029

> <BindingDB Ligand Name>
US8592432, 2

> <Target Name Assigned by Curator or DataSource>
ALK tyrosine kinase receptor

> <Target Source Organism According to Curator or DataSource>
Homo sapiens

> <Ki (nM)>


> <IC50 (nM)>
 8

> <Kd (nM)>


> <EC50 (nM)>


> <kon (M-1-s-1)>


> <koff (s-1)>


> <pH>


> <Temp C>


> <Curation/DataSource>
US Patent

> <Article DOI>


> <PMID>


> <PubChem AID>


> <Patent Number>
US8592432

> <Authors>
Chen, B; Jiang, T; Marsilje, TH; Michellys, P; Nguyen, TN; Pei, W; Wu, B; Gao, Z; Ge, Y; Huang, C; Li, Y; Zhu, X

> <Institution>
TBA

> <Link to Ligand in BindingDB>
http://www.bindingdb.org/bind/chemsearch/marvin/MolStructure.jsp?monomerid=107029

> <Link to Ligand-Target Pair in BindingDB>
http://www.bindingdb.org/jsp/dbsearch/PrimarySearch_ki.jsp?energyterm=kJ/mole&tag=pol&polymerid=5809&target=ALK+tyrosine+kinase+receptor&column=ki&startPg=0&Increment=50&submit=Search

> <Link to Ligand-Target Pair in BindingDB>
http://www.bindingdb.org/jsp/dbsearch/PrimarySearch_ki.jsp?energyterm=kJ/mole&tag=r21&monomerid=107029&enzyme=ALK+tyrosine+kinase+receptor&column=ki&startPg=0&Increment=50&submit=Search

> <Ligand HET ID in PDB>


> <PDB ID(s) for Ligand-Target Complex>


> <PubChem CID>
44467474

> <PubChem SID>
175444476

> <ChEBI ID of Ligand>


> <ChEMBL ID of Ligand>


> <DrugBank ID of Ligand>


> <IUPHAR_GRAC ID of Ligand>


> <KEGG ID of Ligand>


> <ZINC ID of Ligand>
ZINC96177885

> <Number of Protein Chains in Target (>1 implies a multichain complex)>
1

> <BindingDB Target Chain Sequence>
MGAIGLLWLLPLLLSTAAVGSGMGTGQRAGSPAAGPPLQPREPLSYSRLQRKSLAVDFVVPSLFRVYARDLLLPPSSSELKAGRPEARGSLALDCAPLLRLLGPAPGVSWTAGSPAPAEARTLSRVLKGGSVRKLRRAKQLVLELGEEAILEGCVGPPGEAAVGLLQFNLSELFSWWIRQGEGRLRIRLMPEKKASEVGREGRLSAAIRASQPRLLFQIFGTGHSSLESPTNMPSPSPDYFTWNLTWIMKDSFPFLSHRSRYGLECSFDFPCELEYSPPLHDLRNQSWSWRRIPSEEASQMDLLDGPGAERSKEMPRGSFLLLNTSADSKHTILSPWMRSSSEHCTLAVSVHRHLQPSGRYIAQLLPHNEAAREILLMPTPGKHGWTVLQGRIGRPDNPFRVALEYISSGNRSLSAVDFFALKNCSEGTSPGSKMALQSSFTCWNGTVLQLGQACDFHQDCAQGEDESQMCRKLPVGFYCNFEDGFCGWTQGTLSPHTPQWQVRTLKDARFQDHQDHALLLSTTDVPASESATVTSATFPAPIKSSPCELRMSWLIRGVLRGNVSLVLVENKTGKEQGRMVWHVAAYEGLSLWQWMVLPLLDVSDRFWLQMVAWWGQGSRAIVAFDNISISLDCYLTISGEDKILQNTAPKSRNLFERNPNKELKPGENSPRQTPIFDPTVHWLFTTCGASGPHGPTQAQCNNAYQNSNLSVEVGSEGPLKGIQIWKVPATDTYSISGYGAAGGKGGKNTMMRSHGVSVLGIFNLEKDDMLYILVGQQGEDACPSTNQLIQKVCIGENNVIEEEIRVNRSVHEWAGGGGGGGGATYVFKMKDGVPVPLIIAAGGGGRAYGAKTDTFHPERLENNSSVLGLNGNSGAAGGGGGWNDNTSLLWAGKSLQEGATGGHSCPQAMKKWGWETRGGFGGGGGGCSSGGGGGGYIGGNAASNNDPEMDGEDGVSFISPLGILYTPALKVMEGHGEVNIKHYLNCSHCEVDECHMDPESHKVICFCDHGTVLAEDGVSCIVSPTPEPHLPLSLILSVVTSALVAALVLAFSGIMIVYRRKHQELQAMQMELQSPEYKLSKLRTSTIMTDYNPNYCFAGKTSSISDLKEVPRKNITLIRGLGHGAFGEVYEGQVSGMPNDPSPLQVAVKTLPEVCSEQDELDFLMEALIISKFNHQNIVRCIGVSLQSLPRFILLELMAGGDLKSFLRETRPRPSQPSSLAMLDLLHVARDIACGCQYLEENHFIHRDIAARNCLLTCPGPGRVAKIGDFGMARDIYRASYYRKGGCAMLPVKWMPPEAFMEGIFTSKTDTWSFGVLLWEIFSLGYMPYPSKSNQEVLEFVTSGGRMDPPKNCPGPVYRIMTQCWQHQPEDRPNFAIILERIEYCTQDPDVINTALPIEYGPLVEEEEKVPVRPKDPEGVPPLLVSQQAKREEERSPAAPPPLPTTSSGKAAKKPTAAEISVRVPRGPAVEGGHVNMAFSQSNPPSELHKVHGSRNKPTSLWNPTYGSWFTEKPTKKNNPIAKKEPHDRGNLGLEGSCTVPPNVATGRLPGASLLLEPSSLTANMKEVPLFRLRHFPCGNVNYGYQQQGLPLEAATAPGAGHYEDTILKSKNSMNQPGP

> <PDB ID(s) of Target Chain>
2XB7,2XBA,3AOX,5FTO,5FTQ,6E0R,6EBW,6EDL,6MX8

> <UniProt (SwissProt) Recommended Name of Target Chain>
ALK tyrosine kinase receptor

> <UniProt (SwissProt) Entry Name of Target Chain>
ALK_HUMAN

> <UniProt (SwissProt) Primary ID of Target Chain>
Q9UM73

> <UniProt (SwissProt) Secondary ID(s) of Target Chain>
Q4ZFX9,Q53QQ6,Q53RZ4,Q59FI3,Q9Y4K6

> <UniProt (SwissProt) Alternative ID(s) of Target Chain>


> <UniProt (TrEMBL) Submitted Name of Target Chain>


> <UniProt (TrEMBL) Entry Name of Target Chain>


> <UniProt (TrEMBL) Primary ID of Target Chain>


> <UniProt (TrEMBL) Secondary ID(s) of Target Chain>


> <UniProt (TrEMBL) Alternative ID(s) of Target Chain>


$$$$
00093001.cdx

Vconf v2.0 Academic SN VC001-00000579
 81 84  0  0  0  0  0  0  0  0999 V2000
   -1.4580    2.2100    0.6970 C   0  0  0  0  0  0  0  0  0  0  0
   -2.3390    1.7800   -0.3250 C   0  0  0  0  0  0  0  0  0  0  0
   -3.0110    0.5470   -0.2140 C   0  0  0  0  0  0  0  0  0  0  0
   -2.8170   -0.2700    0.9090 C   0  0  0  0  0  0  0  0  0  0  0
   -1.9450    0.1400    1.9270 C   0  0  0  0  0  0  0  0  0  0  0
   -1.2700    1.3670    1.8170 C   0  0  0  0  0  0  0  0  0  0  0
   -2.6600    2.7750   -1.7190 S   0  0  0  0  0  0  0  0  0  0  0
   -3.5000    4.2600   -1.1210 C   0  0  0  0  0  0  0  0  0  0  0
   -3.8040    5.0840   -2.1750 F   0  0  0  0  0  0  0  0  0  0  0
   -4.6590    3.9270   -0.4640 F   0  0  0  0  0  0  0  0  0  0  0
   -1.2550    3.2880   -2.2630 O   0  0  0  0  0  0  0  0  0  0  0
   -3.6940    2.0360   -2.6760 O   0  0  0  0  0  0  0  0  0  0  0
   -0.8480    3.4210    0.5110 N   0  0  0  0  0  0  0  0  0  0  0
   -0.0920    4.1760    1.3620 C   0  0  0  0  0  0  0  0  0  0  0
    0.1100    3.8210    2.6540 N   0  0  0  0  0  0  0  0  0  0  0
    0.8190    4.5670    3.5360 C   0  0  0  0  0  0  0  0  0  0  0
    1.3570    5.7300    3.1070 N   0  0  0  0  0  0  0  0  0  0  0
    1.2020    6.1550    1.8320 C   0  0  0  0  0  0  0  0  0  0  0
    0.4640    5.3930    0.9100 C   0  0  0  0  0  0  0  0  0  0  0
    0.2750    5.9650   -0.6740 Cl  0  0  0  0  0  0  0  0  0  0  0
    0.9930    4.1970    4.8250 N   0  0  0  0  0  0  0  0  0  0  0
    0.5090    3.0440    5.3440 C   0  0  0  0  0  0  0  0  0  0  0
   -0.5250    3.1130    6.2910 C   0  0  0  0  0  0  0  0  0  0  0
   -1.1120    1.9420    6.8120 C   0  0  0  0  0  0  0  0  0  0  0
   -0.6440    0.6730    6.3840 C   0  0  0  0  0  0  0  0  0  0  0
    0.4090    0.6180    5.4460 C   0  0  0  0  0  0  0  0  0  0  0
    0.9960    1.7860    4.9370 C   0  0  0  0  0  0  0  0  0  0  0
   -2.2180    2.0710    7.7780 C   0  0  0  0  0  0  0  0  0  0  0
    1.9970    1.6490    4.0220 O   0  0  0  0  0  0  0  0  0  0  0
    3.3080    2.1590    4.2910 C   0  0  0  0  0  0  0  0  0  0  0
    3.9850    1.3650    5.4200 C   0  0  0  0  0  0  0  0  0  0  0
   -1.2280   -0.6010    6.8790 C   0  0  0  0  0  0  0  0  0  0  0
   -1.8770   -1.4150    5.7370 C   0  0  0  0  0  0  0  0  0  0  0
   -2.4430   -2.7360    6.2820 C   0  0  0  0  0  0  0  0  0  0  0
   -1.4020   -3.4560    6.9520 N   0  0  0  0  0  0  0  0  0  0  0
   -0.8180   -2.7860    8.0730 C   0  0  0  0  0  0  0  0  0  0  0
   -0.1760   -1.4750    7.5970 C   0  0  0  0  0  0  0  0  0  0  0
   -0.9880   -4.6860    6.5170 C   0  0  0  0  0  0  0  0  0  0  0
   -1.5500   -5.2270    5.5390 O   0  0  0  0  0  0  0  0  0  0  0
    0.1350   -5.4150    7.1290 C   0  0  0  0  0  0  0  0  0  0  0
    1.4080   -4.6670    7.0050 N   0  0  0  0  0  0  0  0  0  0  0
    2.4270   -5.2810    7.8730 C   0  0  0  0  0  0  0  0  0  0  0
    1.8980   -4.6620    5.6120 C   0  0  0  0  0  0  0  0  0  0  0
    4.1290    2.0390    3.0000 C   0  0  0  0  0  0  0  0  0  0  0
   -3.6490    0.2450   -0.9510 H   0  0  0  0  0  0  0  0  0  0  0
   -3.3100   -1.1600    0.9850 H   0  0  0  0  0  0  0  0  0  0  0
   -1.7970   -0.4540    2.7440 H   0  0  0  0  0  0  0  0  0  0  0
   -0.6260    1.6180    2.5620 H   0  0  0  0  0  0  0  0  0  0  0
   -2.8450    4.7960   -0.4350 H   0  0  0  0  0  0  0  0  0  0  0
   -0.9840    3.8220   -0.3600 H   0  0  0  0  0  0  0  0  0  0  0
    1.6250    7.0410    1.5500 H   0  0  0  0  0  0  0  0  0  0  0
    1.4680    4.8030    5.4140 H   0  0  0  0  0  0  0  0  0  0  0
   -0.8720    4.0260    6.5880 H   0  0  0  0  0  0  0  0  0  0  0
    0.7560   -0.2870    5.1250 H   0  0  0  0  0  0  0  0  0  0  0
   -1.9400    1.6000    8.7210 H   0  0  0  0  0  0  0  0  0  0  0
   -2.4580    3.1180    7.9720 H   0  0  0  0  0  0  0  0  0  0  0
   -3.1100    1.5840    7.3810 H   0  0  0  0  0  0  0  0  0  0  0
    3.2720    3.2120    4.5700 H   0  0  0  0  0  0  0  0  0  0  0
    5.0060    1.7220    5.5590 H   0  0  0  0  0  0  0  0  0  0  0
    3.4290    1.5030    6.3480 H   0  0  0  0  0  0  0  0  0  0  0
    4.0030    0.3040    5.1670 H   0  0  0  0  0  0  0  0  0  0  0
   -2.0150   -0.4010    7.6050 H   0  0  0  0  0  0  0  0  0  0  0
   -1.1400   -1.6470    4.9670 H   0  0  0  0  0  0  0  0  0  0  0
   -2.6880   -0.8380    5.2890 H   0  0  0  0  0  0  0  0  0  0  0
   -3.2420   -2.5170    6.9920 H   0  0  0  0  0  0  0  0  0  0  0
   -2.8720   -3.2970    5.4490 H   0  0  0  0  0  0  0  0  0  0  0
   -0.0540   -3.3790    8.5770 H   0  0  0  0  0  0  0  0  0  0  0
   -1.5990   -2.5590    8.8010 H   0  0  0  0  0  0  0  0  0  0  0
    0.6460   -1.7200    6.9220 H   0  0  0  0  0  0  0  0  0  0  0
    0.2210   -0.9390    8.4610 H   0  0  0  0  0  0  0  0  0  0  0
   -0.1040   -5.5730    8.1810 H   0  0  0  0  0  0  0  0  0  0  0
    0.2390   -6.3930    6.6560 H   0  0  0  0  0  0  0  0  0  0  0
    3.3620   -4.7230    7.7970 H   0  0  0  0  0  0  0  0  0  0  0
    2.0920   -5.2550    8.9110 H   0  0  0  0  0  0  0  0  0  0  0
    2.6030   -6.3170    7.5800 H   0  0  0  0  0  0  0  0  0  0  0
    2.8360   -4.1090    5.5550 H   0  0  0  0  0  0  0  0  0  0  0
    2.0630   -5.6830    5.2640 H   0  0  0  0  0  0  0  0  0  0  0
    1.1730   -4.1750    4.9590 H   0  0  0  0  0  0  0  0  0  0  0
    5.1340    2.4280    3.1650 H   0  0  0  0  0  0  0  0  0  0  0
    4.1890    0.9940    2.6950 H   0  0  0  0  0  0  0  0  0  0  0
    3.6440    2.6160    2.2110 H   0  0  0  0  0  0  0  0  0  0  0
  1  2  2  0  0  0  0
  1  6  1  0  0  0  0
  1 13  1  0  0  0  0
  2  3  1  0  0  0  0
  2  7  1  0  0  0  0
  3  4  2  0  0  0  0
  3 45  1  0  0  0  0
  4  5  1  0  0  0  0
  4 46  1  0  0  0  0
  5  6  2  0  0  0  0
  5 47  1  0  0  0  0
  6 48  1  0  0  0  0
  7  8  1  0  0  0  0
  7 11  2  0  0  0  0
  7 12  2  0  0  0  0
  8  9  1  0  0  0  0
  8 10  1  0  0  0  0
  8 49  1  0  0  0  0
 13 14  1  0  0  0  0
 13 50  1  0  0  0  0
 14 15  2  0  0  0  0
 14 19  1  0  0  0  0
 15 16  1  0  0  0  0
 16 17  2  0  0  0  0
 16 21  1  0  0  0  0
 17 18  1  0  0  0  0
 18 19  2  0  0  0  0
 18 51  1  0  0  0  0
 19 20  1  0  0  0  0
 21 22  1  0  0  0  0
 21 52  1  0  0  0  0
 22 23  2  0  0  0  0
 22 27  1  0  0  0  0
 23 24  1  0  0  0  0
 23 53  1  0  0  0  0
 24 25  2  0  0  0  0
 24 28  1  0  0  0  0
 25 26  1  0  0  0  0
 25 32  1  0  0  0  0
 26 27  2  0  0  0  0
 26 54  1  0  0  0  0
 27 29  1  0  0  0  0
 28 55  1  0  0  0  0
 28 56  1  0  0  0  0
 28 57  1  0  0  0  0
 29 30  1  0  0  0  0
 30 31  1  0  0  0  0
 30 44  1  0  0  0  0
 30 58  1  0  0  0  0
 31 59  1  0  0  0  0
 31 60  1  0  0  0  0
 31 61  1  0  0  0  0
 32 33  1  0  0  0  0
 32 37  1  0  0  0  0
 32 62  1  0  0  0  0
 33 34  1  0  0  0  0
 33 63  1  0  0  0  0
 33 64  1  0  0  0  0
 34 35  1  0  0  0  0
 34 65  1  0  0  0  0
 34 66  1  0  0  0  0
 35 36  1  0  0  0  0
 35 38  1  0  0  0  0
 36 37  1  0  0  0  0
 36 67  1  0  0  0  0
 36 68  1  0  0  0  0
 37 69  1  0  0  0  0
 37 70  1  0  0  0  0
 38 39  2  0  0  0  0
 38 40  1  0  0  0  0
 40 41  1  0  0  0  0
 40 71  1  0  0  0  0
 40 72  1  0  0  0  0
 41 42  1  0  0  0  0
 41 43  1  0  0  0  0
 42 73  1  0  0  0  0
 42 74  1  0  0  0  0
 42 75  1  0  0  0  0
 43 76  1  0  0  0  0
 43 77  1  0  0  0  0
 43 78  1  0  0  0  0
 44 79  1  0  0  0  0
 44 80  1  0  0  0  0
 44 81  1  0  0  0  0
M  END
> <From>
www.bindingDB.org

> <BindingDB Reactant_set_id>
226243

> <Ligand InChI>
InChI=1S/C30H37ClF2N6O4S/c1-18(2)43-25-15-21(20-10-12-39(13-11-20)27(40)17-38(4)5)19(3)14-24(25)36-30-34-16-22(31)28(37-30)35-23-8-6-7-9-26(23)44(41,42)29(32)33/h6-9,14-16,18,20,29H,10-13,17H2,1-5H3,(H2,34,35,36,37)

> <Ligand InChI Key>
PTNYZZHTIARFIT-UHFFFAOYSA-N

> <BindingDB MonomerID>
107030

> <BindingDB Ligand Name>
US8592432, 3

> <Target Name Assigned by Curator or DataSource>
ALK tyrosine kinase receptor

> <Target Source Organism According to Curator or DataSource>
Homo sapiens

> <Ki (nM)>


> <IC50 (nM)>
 77

> <Kd (nM)>


> <EC50 (nM)>


> <kon (M-1-s-1)>


> <koff (s-1)>


> <pH>


> <Temp C>


> <Curation/DataSource>
US Patent

> <Article DOI>


> <PMID>


> <PubChem AID>


> <Patent Number>
US8592432

> <Authors>
Chen, B; Jiang, T; Marsilje, TH; Michellys, P; Nguyen, TN; Pei, W; Wu, B; Gao, Z; Ge, Y; Huang, C; Li, Y; Zhu, X

> <Institution>
TBA

> <Link to Ligand in BindingDB>
http://www.bindingdb.org/bind/chemsearch/marvin/MolStructure.jsp?monomerid=107030

> <Link to Ligand-Target Pair in BindingDB>
http://www.bindingdb.org/jsp/dbsearch/PrimarySearch_ki.jsp?energyterm=kJ/mole&tag=pol&polymerid=5809&target=ALK+tyrosine+kinase+receptor&column=ki&startPg=0&Increment=50&submit=Search

> <Link to Ligand-Target Pair in BindingDB>
http://www.bindingdb.org/jsp/dbsearch/PrimarySearch_ki.jsp?energyterm=kJ/mole&tag=r21&monomerid=107030&enzyme=ALK+tyrosine+kinase+receptor&column=ki&startPg=0&Increment=50&submit=Search

> <Ligand HET ID in PDB>


> <PDB ID(s) for Ligand-Target Complex>


> <PubChem CID>
44467475

> <PubChem SID>
175444477

> <ChEBI ID of Ligand>


> <ChEMBL ID of Ligand>


> <DrugBank ID of Ligand>


> <IUPHAR_GRAC ID of Ligand>


> <KEGG ID of Ligand>


> <ZINC ID of Ligand>
ZINC96177886

> <Number of Protein Chains in Target (>1 implies a multichain complex)>
1

> <BindingDB Target Chain Sequence>
MGAIGLLWLLPLLLSTAAVGSGMGTGQRAGSPAAGPPLQPREPLSYSRLQRKSLAVDFVVPSLFRVYARDLLLPPSSSELKAGRPEARGSLALDCAPLLRLLGPAPGVSWTAGSPAPAEARTLSRVLKGGSVRKLRRAKQLVLELGEEAILEGCVGPPGEAAVGLLQFNLSELFSWWIRQGEGRLRIRLMPEKKASEVGREGRLSAAIRASQPRLLFQIFGTGHSSLESPTNMPSPSPDYFTWNLTWIMKDSFPFLSHRSRYGLECSFDFPCELEYSPPLHDLRNQSWSWRRIPSEEASQMDLLDGPGAERSKEMPRGSFLLLNTSADSKHTILSPWMRSSSEHCTLAVSVHRHLQPSGRYIAQLLPHNEAAREILLMPTPGKHGWTVLQGRIGRPDNPFRVALEYISSGNRSLSAVDFFALKNCSEGTSPGSKMALQSSFTCWNGTVLQLGQACDFHQDCAQGEDESQMCRKLPVGFYCNFEDGFCGWTQGTLSPHTPQWQVRTLKDARFQDHQDHALLLSTTDVPASESATVTSATFPAPIKSSPCELRMSWLIRGVLRGNVSLVLVENKTGKEQGRMVWHVAAYEGLSLWQWMVLPLLDVSDRFWLQMVAWWGQGSRAIVAFDNISISLDCYLTISGEDKILQNTAPKSRNLFERNPNKELKPGENSPRQTPIFDPTVHWLFTTCGASGPHGPTQAQCNNAYQNSNLSVEVGSEGPLKGIQIWKVPATDTYSISGYGAAGGKGGKNTMMRSHGVSVLGIFNLEKDDMLYILVGQQGEDACPSTNQLIQKVCIGENNVIEEEIRVNRSVHEWAGGGGGGGGATYVFKMKDGVPVPLIIAAGGGGRAYGAKTDTFHPERLENNSSVLGLNGNSGAAGGGGGWNDNTSLLWAGKSLQEGATGGHSCPQAMKKWGWETRGGFGGGGGGCSSGGGGGGYIGGNAASNNDPEMDGEDGVSFISPLGILYTPALKVMEGHGEVNIKHYLNCSHCEVDECHMDPESHKVICFCDHGTVLAEDGVSCIVSPTPEPHLPLSLILSVVTSALVAALVLAFSGIMIVYRRKHQELQAMQMELQSPEYKLSKLRTSTIMTDYNPNYCFAGKTSSISDLKEVPRKNITLIRGLGHGAFGEVYEGQVSGMPNDPSPLQVAVKTLPEVCSEQDELDFLMEALIISKFNHQNIVRCIGVSLQSLPRFILLELMAGGDLKSFLRETRPRPSQPSSLAMLDLLHVARDIACGCQYLEENHFIHRDIAARNCLLTCPGPGRVAKIGDFGMARDIYRASYYRKGGCAMLPVKWMPPEAFMEGIFTSKTDTWSFGVLLWEIFSLGYMPYPSKSNQEVLEFVTSGGRMDPPKNCPGPVYRIMTQCWQHQPEDRPNFAIILERIEYCTQDPDVINTALPIEYGPLVEEEEKVPVRPKDPEGVPPLLVSQQAKREEERSPAAPPPLPTTSSGKAAKKPTAAEISVRVPRGPAVEGGHVNMAFSQSNPPSELHKVHGSRNKPTSLWNPTYGSWFTEKPTKKNNPIAKKEPHDRGNLGLEGSCTVPPNVATGRLPGASLLLEPSSLTANMKEVPLFRLRHFPCGNVNYGYQQQGLPLEAATAPGAGHYEDTILKSKNSMNQPGP

> <PDB ID(s) of Target Chain>
2XB7,2XBA,3AOX,5FTO,5FTQ,6E0R,6EBW,6EDL,6MX8

> <UniProt (SwissProt) Recommended Name of Target Chain>
ALK tyrosine kinase receptor

> <UniProt (SwissProt) Entry Name of Target Chain>
ALK_HUMAN

> <UniProt (SwissProt) Primary ID of Target Chain>
Q9UM73

> <UniProt (SwissProt) Secondary ID(s) of Target Chain>
Q4ZFX9,Q53QQ6,Q53RZ4,Q59FI3,Q9Y4K6

> <UniProt (SwissProt) Alternative ID(s) of Target Chain>


> <UniProt (TrEMBL) Submitted Name of Target Chain>


> <UniProt (TrEMBL) Entry Name of Target Chain>


> <UniProt (TrEMBL) Primary ID of Target Chain>


> <UniProt (TrEMBL) Secondary ID(s) of Target Chain>


> <UniProt (TrEMBL) Alternative ID(s) of Target Chain>


$$$$
00095001.cdx

Vconf v2.0 Academic SN VC001-00000579
 84 87  0  0  0  0  0  0  0  0999 V2000
   -2.0220    1.1580    1.3740 C   0  0  0  0  0  0  0  0  0  0  0
   -2.5360    0.4780    2.4870 C   0  0  0  0  0  0  0  0  0  0  0
   -2.8010   -0.8990    2.4070 C   0  0  0  0  0  0  0  0  0  0  0
   -2.5560   -1.6220    1.2140 C   0  0  0  0  0  0  0  0  0  0  0
   -2.0390   -0.9220    0.0990 C   0  0  0  0  0  0  0  0  0  0  0
   -1.7740    0.4580    0.1840 C   0  0  0  0  0  0  0  0  0  0  0
   -1.6180   -1.7570   -1.3680 S   0  0  0  0  0  0  0  0  0  0  0
   -0.3090   -2.9330   -0.9500 C   0  0  0  0  0  0  0  0  0  0  0
    0.1430   -3.6570   -2.2250 C   0  0  0  0  0  0  0  0  0  0  0
    0.8850   -2.2230   -0.2910 C   0  0  0  0  0  0  0  0  0  0  0
   -2.8490   -2.6800   -1.7700 O   0  0  0  0  0  0  0  0  0  0  0
   -0.9570   -0.7380   -2.3970 O   0  0  0  0  0  0  0  0  0  0  0
   -2.7890   -2.9600    1.0490 N   0  0  0  0  0  0  0  0  0  0  0
   -3.0160   -3.9250    1.9850 C   0  0  0  0  0  0  0  0  0  0  0
   -3.3120   -5.2490    1.6020 C   0  0  0  0  0  0  0  0  0  0  0
   -3.4760   -6.2020    2.6240 C   0  0  0  0  0  0  0  0  0  0  0
   -3.3220   -5.8520    3.9240 N   0  0  0  0  0  0  0  0  0  0  0
   -3.0190   -4.5840    4.2820 C   0  0  0  0  0  0  0  0  0  0  0
   -2.8820   -3.6580    3.3040 N   0  0  0  0  0  0  0  0  0  0  0
   -3.4710   -5.7210   -0.0170 Cl  0  0  0  0  0  0  0  0  0  0  0
   -2.8030   -4.2690    5.5800 N   0  0  0  0  0  0  0  0  0  0  0
   -2.3990   -3.0340    5.9640 C   0  0  0  0  0  0  0  0  0  0  0
   -1.0300   -2.7100    6.0110 C   0  0  0  0  0  0  0  0  0  0  0
   -0.6350   -1.4090    6.3590 C   0  0  0  0  0  0  0  0  0  0  0
   -1.5840   -0.4010    6.6310 C   0  0  0  0  0  0  0  0  0  0  0
   -2.9620   -0.7300    6.5810 C   0  0  0  0  0  0  0  0  0  0  0
   -3.3550   -2.0450    6.2570 C   0  0  0  0  0  0  0  0  0  0  0
   -4.0030    0.2800    6.8430 C   0  0  0  0  0  0  0  0  0  0  0
   -0.0760   -3.6400    5.7310 O   0  0  0  0  0  0  0  0  0  0  0
    0.4220   -3.7840    4.3940 C   0  0  0  0  0  0  0  0  0  0  0
    1.2040   -2.5470    3.9200 C   0  0  0  0  0  0  0  0  0  0  0
    1.3380   -5.0140    4.3750 C   0  0  0  0  0  0  0  0  0  0  0
   -1.1030    0.9730    6.9380 C   0  0  1  0  0  0  0  0  0  0  0
   -0.2070    1.0040    8.1930 C   0  0  0  0  0  0  0  0  0  0  0
    0.2800    2.4360    8.4590 C   0  0  0  0  0  0  0  0  0  0  0
    1.0340    2.9520    7.2950 N   0  0  0  0  0  0  0  0  0  0  0
    0.1540    2.9950    6.1090 C   0  0  0  0  0  0  0  0  0  0  0
   -0.3290    1.5820    5.7510 C   0  0  0  0  0  0  0  0  0  0  0
    1.5680    4.3040    7.5650 C   0  0  0  0  0  0  0  0  0  0  0
    2.8240    4.2530    8.4580 C   0  0  1  0  0  0  0  0  0  0  0
    3.8180    3.4660    7.8050 O   0  0  0  0  0  0  0  0  0  0  0
    3.3710    5.6670    8.7550 C   0  0  0  0  0  0  0  0  0  0  0
    4.4840    5.5720    9.5530 F   0  0  0  0  0  0  0  0  0  0  0
    3.7200    6.3200    7.5980 F   0  0  0  0  0  0  0  0  0  0  0
    2.4310    6.4150    9.4210 F   0  0  0  0  0  0  0  0  0  0  0
   -1.8270    2.1580    1.4300 H   0  0  0  0  0  0  0  0  0  0  0
   -2.7250    0.9830    3.3530 H   0  0  0  0  0  0  0  0  0  0  0
   -3.2010   -1.3530    3.2240 H   0  0  0  0  0  0  0  0  0  0  0
   -1.3870    0.9540   -0.6190 H   0  0  0  0  0  0  0  0  0  0  0
   -0.7000   -3.6740   -0.2530 H   0  0  0  0  0  0  0  0  0  0  0
    0.9160   -4.3870   -1.9840 H   0  0  0  0  0  0  0  0  0  0  0
   -0.7110   -4.1690   -2.6670 H   0  0  0  0  0  0  0  0  0  0  0
    0.5370   -2.9330   -2.9400 H   0  0  0  0  0  0  0  0  0  0  0
    1.6720   -2.9470   -0.0770 H   0  0  0  0  0  0  0  0  0  0  0
    1.2720   -1.4540   -0.9590 H   0  0  0  0  0  0  0  0  0  0  0
    0.5690   -1.7610    0.6440 H   0  0  0  0  0  0  0  0  0  0  0
   -2.7540   -3.2820    0.1350 H   0  0  0  0  0  0  0  0  0  0  0
   -3.6970   -7.1720    2.3960 H   0  0  0  0  0  0  0  0  0  0  0
   -2.8900   -4.9650    6.2490 H   0  0  0  0  0  0  0  0  0  0  0
    0.3610   -1.1910    6.3920 H   0  0  0  0  0  0  0  0  0  0  0
   -4.3480   -2.2810    6.2080 H   0  0  0  0  0  0  0  0  0  0  0
   -5.0050   -0.1410    6.7400 H   0  0  0  0  0  0  0  0  0  0  0
   -3.8930    0.6640    7.8590 H   0  0  0  0  0  0  0  0  0  0  0
   -3.9000    1.1010    6.1320 H   0  0  0  0  0  0  0  0  0  0  0
   -0.3970   -3.9650    3.6990 H   0  0  0  0  0  0  0  0  0  0  0
    1.6660   -2.7520    2.9530 H   0  0  0  0  0  0  0  0  0  0  0
    0.5260   -1.7000    3.8110 H   0  0  0  0  0  0  0  0  0  0  0
    1.9790   -2.3010    4.6460 H   0  0  0  0  0  0  0  0  0  0  0
    1.7000   -5.1910    3.3620 H   0  0  0  0  0  0  0  0  0  0  0
    2.1860   -4.8510    5.0410 H   0  0  0  0  0  0  0  0  0  0  0
    0.7780   -5.8860    4.7130 H   0  0  0  0  0  0  0  0  0  0  0
   -1.9450    1.6340    7.1380 H   0  0  0  0  0  0  0  0  0  0  0
    0.6660    0.3640    8.0570 H   0  0  0  0  0  0  0  0  0  0  0
   -0.7740    0.6550    9.0580 H   0  0  0  0  0  0  0  0  0  0  0
   -0.5780    3.0780    8.6660 H   0  0  0  0  0  0  0  0  0  0  0
    0.9220    2.4120    9.3390 H   0  0  0  0  0  0  0  0  0  0  0
    0.7090    3.3890    5.2560 H   0  0  0  0  0  0  0  0  0  0  0
   -0.7070    3.6380    6.2990 H   0  0  0  0  0  0  0  0  0  0  0
    0.5400    0.9700    5.5060 H   0  0  0  0  0  0  0  0  0  0  0
   -0.9800    1.6410    4.8790 H   0  0  0  0  0  0  0  0  0  0  0
    1.8540    4.7750    6.6240 H   0  0  0  0  0  0  0  0  0  0  0
    0.8010    4.9180    8.0380 H   0  0  0  0  0  0  0  0  0  0  0
    2.5760    3.7780    9.4060 H   0  0  0  0  0  0  0  0  0  0  0
    4.6640    3.3980    8.2960 H   0  0  0  0  0  0  0  0  0  0  0
  1  2  2  0  0  0  0
  1  6  1  0  0  0  0
  1 46  1  0  0  0  0
  2  3  1  0  0  0  0
  2 47  1  0  0  0  0
  3  4  2  0  0  0  0
  3 48  1  0  0  0  0
  4  5  1  0  0  0  0
  4 13  1  0  0  0  0
  5  6  2  0  0  0  0
  5  7  1  0  0  0  0
  6 49  1  0  0  0  0
  7  8  1  0  0  0  0
  7 11  2  0  0  0  0
  7 12  2  0  0  0  0
  8  9  1  0  0  0  0
  8 10  1  0  0  0  0
  8 50  1  0  0  0  0
  9 51  1  0  0  0  0
  9 52  1  0  0  0  0
  9 53  1  0  0  0  0
 10 54  1  0  0  0  0
 10 55  1  0  0  0  0
 10 56  1  0  0  0  0
 13 14  1  0  0  0  0
 13 57  1  0  0  0  0
 14 15  2  0  0  0  0
 14 19  1  0  0  0  0
 15 16  1  0  0  0  0
 15 20  1  0  0  0  0
 16 17  2  0  0  0  0
 16 58  1  0  0  0  0
 17 18  1  0  0  0  0
 18 19  2  0  0  0  0
 18 21  1  0  0  0  0
 21 22  1  0  0  0  0
 21 59  1  0  0  0  0
 22 23  2  0  0  0  0
 22 27  1  0  0  0  0
 23 24  1  0  0  0  0
 23 29  1  0  0  0  0
 24 25  2  0  0  0  0
 24 60  1  0  0  0  0
 25 26  1  0  0  0  0
 25 33  1  0  0  0  0
 26 27  2  0  0  0  0
 26 28  1  0  0  0  0
 27 61  1  0  0  0  0
 28 62  1  0  0  0  0
 28 63  1  0  0  0  0
 28 64  1  0  0  0  0
 29 30  1  0  0  0  0
 30 31  1  0  0  0  0
 30 32  1  0  0  0  0
 30 65  1  0  0  0  0
 31 66  1  0  0  0  0
 31 67  1  0  0  0  0
 31 68  1  0  0  0  0
 32 69  1  0  0  0  0
 32 70  1  0  0  0  0
 32 71  1  0  0  0  0
 33 34  1  0  0  0  0
 33 38  1  0  0  0  0
 33 72  1  0  0  0  0
 34 35  1  0  0  0  0
 34 73  1  0  0  0  0
 34 74  1  0  0  0  0
 35 36  1  0  0  0  0
 35 75  1  0  0  0  0
 35 76  1  0  0  0  0
 36 37  1  0  0  0  0
 36 39  1  0  0  0  0
 37 38  1  0  0  0  0
 37 77  1  0  0  0  0
 37 78  1  0  0  0  0
 38 79  1  0  0  0  0
 38 80  1  0  0  0  0
 39 40  1  0  0  0  0
 39 81  1  0  0  0  0
 39 82  1  0  0  0  0
 40 41  1  1  0  0  0
 40 42  1  0  0  0  0
 40 83  1  0  0  0  0
 41 84  1  0  0  0  0
 42 43  1  0  0  0  0
 42 44  1  0  0  0  0
 42 45  1  0  0  0  0
M  END
> <From>
www.bindingDB.org

> <BindingDB Reactant_set_id>
226244

> <Ligand InChI>
InChI=1S/C31H39ClF3N5O4S/c1-18(2)44-26-15-22(21-10-12-40(13-11-21)17-28(41)31(33,34)35)20(5)14-25(26)38-30-36-16-23(32)29(39-30)37-24-8-6-7-9-27(24)45(42,43)19(3)4/h6-9,14-16,18-19,21,28,41H,10-13,17H2,1-5H3,(H2,36,37,38,39)/t28-/m1/s1

> <Ligand InChI Key>
KLVHMGYISDAIRN-MUUNZHRXSA-N

> <BindingDB MonomerID>
107031

> <BindingDB Ligand Name>
US8592432, 5

> <Target Name Assigned by Curator or DataSource>
ALK tyrosine kinase receptor

> <Target Source Organism According to Curator or DataSource>
Homo sapiens

> <Ki (nM)>


> <IC50 (nM)>
 88

> <Kd (nM)>


> <EC50 (nM)>


> <kon (M-1-s-1)>


> <koff (s-1)>


> <pH>


> <Temp C>


> <Curation/DataSource>
US Patent

> <Article DOI>


> <PMID>


> <PubChem AID>


> <Patent Number>
US8592432

> <Authors>
Chen, B; Jiang, T; Marsilje, TH; Michellys, P; Nguyen, TN; Pei, W; Wu, B; Gao, Z; Ge, Y; Huang, C; Li, Y; Zhu, X

> <Institution>
TBA

> <Link to Ligand in BindingDB>
http://www.bindingdb.org/bind/chemsearch/marvin/MolStructure.jsp?monomerid=107031

> <Link to Ligand-Target Pair in BindingDB>
http://www.bindingdb.org/jsp/dbsearch/PrimarySearch_ki.jsp?energyterm=kJ/mole&tag=pol&polymerid=5809&target=ALK+tyrosine+kinase+receptor&column=ki&startPg=0&Increment=50&submit=Search

> <Link to Ligand-Target Pair in BindingDB>
http://www.bindingdb.org/jsp/dbsearch/PrimarySearch_ki.jsp?energyterm=kJ/mole&tag=r21&monomerid=107031&enzyme=ALK+tyrosine+kinase+receptor&column=ki&startPg=0&Increment=50&submit=Search

> <Ligand HET ID in PDB>


> <PDB ID(s) for Ligand-Target Complex>


> <PubChem CID>
44467544

> <PubChem SID>
175444478

> <ChEBI ID of Ligand>


> <ChEMBL ID of Ligand>


> <DrugBank ID of Ligand>


> <IUPHAR_GRAC ID of Ligand>


> <KEGG ID of Ligand>


> <ZINC ID of Ligand>
ZINC96177887

> <Number of Protein Chains in Target (>1 implies a multichain complex)>
1

> <BindingDB Target Chain Sequence>
MGAIGLLWLLPLLLSTAAVGSGMGTGQRAGSPAAGPPLQPREPLSYSRLQRKSLAVDFVVPSLFRVYARDLLLPPSSSELKAGRPEARGSLALDCAPLLRLLGPAPGVSWTAGSPAPAEARTLSRVLKGGSVRKLRRAKQLVLELGEEAILEGCVGPPGEAAVGLLQFNLSELFSWWIRQGEGRLRIRLMPEKKASEVGREGRLSAAIRASQPRLLFQIFGTGHSSLESPTNMPSPSPDYFTWNLTWIMKDSFPFLSHRSRYGLECSFDFPCELEYSPPLHDLRNQSWSWRRIPSEEASQMDLLDGPGAERSKEMPRGSFLLLNTSADSKHTILSPWMRSSSEHCTLAVSVHRHLQPSGRYIAQLLPHNEAAREILLMPTPGKHGWTVLQGRIGRPDNPFRVALEYISSGNRSLSAVDFFALKNCSEGTSPGSKMALQSSFTCWNGTVLQLGQACDFHQDCAQGEDESQMCRKLPVGFYCNFEDGFCGWTQGTLSPHTPQWQVRTLKDARFQDHQDHALLLSTTDVPASESATVTSATFPAPIKSSPCELRMSWLIRGVLRGNVSLVLVENKTGKEQGRMVWHVAAYEGLSLWQWMVLPLLDVSDRFWLQMVAWWGQGSRAIVAFDNISISLDCYLTISGEDKILQNTAPKSRNLFERNPNKELKPGENSPRQTPIFDPTVHWLFTTCGASGPHGPTQAQCNNAYQNSNLSVEVGSEGPLKGIQIWKVPATDTYSISGYGAAGGKGGKNTMMRSHGVSVLGIFNLEKDDMLYILVGQQGEDACPSTNQLIQKVCIGENNVIEEEIRVNRSVHEWAGGGGGGGGATYVFKMKDGVPVPLIIAAGGGGRAYGAKTDTFHPERLENNSSVLGLNGNSGAAGGGGGWNDNTSLLWAGKSLQEGATGGHSCPQAMKKWGWETRGGFGGGGGGCSSGGGGGGYIGGNAASNNDPEMDGEDGVSFISPLGILYTPALKVMEGHGEVNIKHYLNCSHCEVDECHMDPESHKVICFCDHGTVLAEDGVSCIVSPTPEPHLPLSLILSVVTSALVAALVLAFSGIMIVYRRKHQELQAMQMELQSPEYKLSKLRTSTIMTDYNPNYCFAGKTSSISDLKEVPRKNITLIRGLGHGAFGEVYEGQVSGMPNDPSPLQVAVKTLPEVCSEQDELDFLMEALIISKFNHQNIVRCIGVSLQSLPRFILLELMAGGDLKSFLRETRPRPSQPSSLAMLDLLHVARDIACGCQYLEENHFIHRDIAARNCLLTCPGPGRVAKIGDFGMARDIYRASYYRKGGCAMLPVKWMPPEAFMEGIFTSKTDTWSFGVLLWEIFSLGYMPYPSKSNQEVLEFVTSGGRMDPPKNCPGPVYRIMTQCWQHQPEDRPNFAIILERIEYCTQDPDVINTALPIEYGPLVEEEEKVPVRPKDPEGVPPLLVSQQAKREEERSPAAPPPLPTTSSGKAAKKPTAAEISVRVPRGPAVEGGHVNMAFSQSNPPSELHKVHGSRNKPTSLWNPTYGSWFTEKPTKKNNPIAKKEPHDRGNLGLEGSCTVPPNVATGRLPGASLLLEPSSLTANMKEVPLFRLRHFPCGNVNYGYQQQGLPLEAATAPGAGHYEDTILKSKNSMNQPGP

> <PDB ID(s) of Target Chain>
2XB7,2XBA,3AOX,5FTO,5FTQ,6E0R,6EBW,6EDL,6MX8

> <UniProt (SwissProt) Recommended Name of Target Chain>
ALK tyrosine kinase receptor

> <UniProt (SwissProt) Entry Name of Target Chain>
ALK_HUMAN

> <UniProt (SwissProt) Primary ID of Target Chain>
Q9UM73

> <UniProt (SwissProt) Secondary ID(s) of Target Chain>
Q4ZFX9,Q53QQ6,Q53RZ4,Q59FI3,Q9Y4K6

> <UniProt (SwissProt) Alternative ID(s) of Target Chain>


> <UniProt (TrEMBL) Submitted Name of Target Chain>


> <UniProt (TrEMBL) Entry Name of Target Chain>


> <UniProt (TrEMBL) Primary ID of Target Chain>


> <UniProt (TrEMBL) Secondary ID(s) of Target Chain>


> <UniProt (TrEMBL) Alternative ID(s) of Target Chain>


$$$$
00096001.cdx

Vconf v2.0 Academic SN VC001-00000579
 84 87  0  0  0  0  0  0  0  0999 V2000
   -1.7500    0.7280    0.5460 C   0  0  0  0  0  0  0  0  0  0  0
   -2.1480    0.2810    1.8120 C   0  0  0  0  0  0  0  0  0  0  0
   -2.4970   -1.0650    2.0030 C   0  0  0  0  0  0  0  0  0  0  0
   -2.4450   -2.0000    0.9400 C   0  0  0  0  0  0  0  0  0  0  0
   -2.0430   -1.5310   -0.3370 C   0  0  0  0  0  0  0  0  0  0  0
   -1.6990   -0.1770   -0.5220 C   0  0  0  0  0  0  0  0  0  0  0
   -1.8740   -2.5810   -1.7200 S   0  0  0  0  0  0  0  0  0  0  0
   -0.2380   -3.3480   -1.6430 C   0  0  0  0  0  0  0  0  0  0  0
    0.8640   -2.2830   -1.7760 C   0  0  0  0  0  0  0  0  0  0  0
   -0.0440   -4.1500   -0.3450 C   0  0  0  0  0  0  0  0  0  0  0
   -2.8980   -3.7970   -1.6750 O   0  0  0  0  0  0  0  0  0  0  0
   -1.7960   -1.6900   -3.0370 O   0  0  0  0  0  0  0  0  0  0  0
   -2.7590   -3.3300    1.0570 N   0  0  0  0  0  0  0  0  0  0  0
   -3.0340   -4.0820    2.1650 C   0  0  0  0  0  0  0  0  0  0  0
   -3.4120   -5.4360    2.0260 C   0  0  0  0  0  0  0  0  0  0  0
   -3.6810   -6.1630    3.1980 C   0  0  0  0  0  0  0  0  0  0  0
   -3.5460   -5.5820    4.4140 N   0  0  0  0  0  0  0  0  0  0  0
   -3.1560   -4.2940    4.5450 C   0  0  0  0  0  0  0  0  0  0  0
   -2.9200   -3.5800    3.4190 N   0  0  0  0  0  0  0  0  0  0  0
   -3.5680   -6.2040    0.5220 Cl  0  0  0  0  0  0  0  0  0  0  0
   -3.0070   -3.7740    5.7870 N   0  0  0  0  0  0  0  0  0  0  0
   -2.5840   -2.5110    6.0510 C   0  0  0  0  0  0  0  0  0  0  0
   -1.3230   -2.0410    5.6270 C   0  0  0  0  0  0  0  0  0  0  0
   -0.9460   -0.7190    5.9360 C   0  0  0  0  0  0  0  0  0  0  0
   -1.7860    0.1370    6.6820 C   0  0  0  0  0  0  0  0  0  0  0
   -3.0330   -0.3600    7.1380 C   0  0  0  0  0  0  0  0  0  0  0
   -3.4190   -1.6770    6.8140 C   0  0  0  0  0  0  0  0  0  0  0
   -3.9410    0.4650    7.9580 C   0  0  0  0  0  0  0  0  0  0  0
   -0.5270   -2.9060    4.9240 O   0  0  0  0  0  0  0  0  0  0  0
    0.8580   -2.6940    4.6240 C   0  0  0  0  0  0  0  0  0  0  0
    1.7280   -2.8170    5.8900 C   0  0  0  0  0  0  0  0  0  0  0
    1.2690   -3.7770    3.6170 C   0  0  0  0  0  0  0  0  0  0  0
   -1.3280    1.5230    6.9790 C   0  0  1  0  0  0  0  0  0  0  0
   -0.0590    1.5260    7.8520 C   0  0  0  0  0  0  0  0  0  0  0
    0.3800    2.9690    8.1380 C   0  0  0  0  0  0  0  0  0  0  0
    0.6460    3.7020    6.8830 N   0  0  0  0  0  0  0  0  0  0  0
   -0.5860    3.7580    6.0660 C   0  0  0  0  0  0  0  0  0  0  0
   -1.0580    2.3410    5.7010 C   0  0  0  0  0  0  0  0  0  0  0
    1.1590    5.0500    7.2180 C   0  0  0  0  0  0  0  0  0  0  0
    1.5950    5.8540    5.9780 C   0  0  2  0  0  0  0  0  0  0  0
    2.4790    5.0550    5.1940 O   0  0  0  0  0  0  0  0  0  0  0
    2.2670    7.1900    6.3680 C   0  0  0  0  0  0  0  0  0  0  0
    2.6090    7.8820    5.2330 F   0  0  0  0  0  0  0  0  0  0  0
    1.4020    7.9690    7.0980 F   0  0  0  0  0  0  0  0  0  0  0
    3.4050    6.9810    7.1080 F   0  0  0  0  0  0  0  0  0  0  0
   -1.4910    1.7050    0.4040 H   0  0  0  0  0  0  0  0  0  0  0
   -2.1890    0.9340    2.5950 H   0  0  0  0  0  0  0  0  0  0  0
   -2.7970   -1.3370    2.9340 H   0  0  0  0  0  0  0  0  0  0  0
   -1.3960    0.1490   -1.4400 H   0  0  0  0  0  0  0  0  0  0  0
   -0.1550   -4.0350   -2.4870 H   0  0  0  0  0  0  0  0  0  0  0
    1.8410   -2.7650   -1.8190 H   0  0  0  0  0  0  0  0  0  0  0
    0.7100   -1.7090   -2.6900 H   0  0  0  0  0  0  0  0  0  0  0
    0.8340   -1.6050   -0.9220 H   0  0  0  0  0  0  0  0  0  0  0
    0.9050   -4.6860   -0.3860 H   0  0  0  0  0  0  0  0  0  0  0
   -0.0390   -3.4780    0.5130 H   0  0  0  0  0  0  0  0  0  0  0
   -0.8530   -4.8710   -0.2350 H   0  0  0  0  0  0  0  0  0  0  0
   -2.7800   -3.8220    0.2240 H   0  0  0  0  0  0  0  0  0  0  0
   -3.9810   -7.1370    3.1450 H   0  0  0  0  0  0  0  0  0  0  0
   -3.2280   -4.3420    6.5400 H   0  0  0  0  0  0  0  0  0  0  0
   -0.0400   -0.3760    5.6200 H   0  0  0  0  0  0  0  0  0  0  0
   -4.3200   -2.0320    7.1390 H   0  0  0  0  0  0  0  0  0  0  0
   -4.8600   -0.0710    8.2010 H   0  0  0  0  0  0  0  0  0  0  0
   -3.4440    0.7380    8.8920 H   0  0  0  0  0  0  0  0  0  0  0
   -4.2060    1.3710    7.4110 H   0  0  0  0  0  0  0  0  0  0  0
    1.0120   -1.7200    4.1550 H   0  0  0  0  0  0  0  0  0  0  0
    2.7840   -2.7180    5.6270 H   0  0  0  0  0  0  0  0  0  0  0
    1.4670   -2.0390    6.6080 H   0  0  0  0  0  0  0  0  0  0  0
    1.5670   -3.7940    6.3480 H   0  0  0  0  0  0  0  0  0  0  0
    2.3230   -3.6660    3.3580 H   0  0  0  0  0  0  0  0  0  0  0
    1.1040   -4.7640    4.0520 H   0  0  0  0  0  0  0  0  0  0  0
    0.6670   -3.6830    2.7130 H   0  0  0  0  0  0  0  0  0  0  0
   -2.0910    2.0630    7.5360 H   0  0  0  0  0  0  0  0  0  0  0
    0.7530    1.0030    7.3450 H   0  0  0  0  0  0  0  0  0  0  0
   -0.2680    1.0250    8.7970 H   0  0  0  0  0  0  0  0  0  0  0
   -0.3980    3.4760    8.7110 H   0  0  0  0  0  0  0  0  0  0  0
    1.2890    2.9340    8.7390 H   0  0  0  0  0  0  0  0  0  0  0
   -0.3930    4.2870    5.1340 H   0  0  0  0  0  0  0  0  0  0  0
   -1.3760    4.2790    6.6080 H   0  0  0  0  0  0  0  0  0  0  0
   -0.2840    1.8620    5.1000 H   0  0  0  0  0  0  0  0  0  0  0
   -1.9740    2.4100    5.1120 H   0  0  0  0  0  0  0  0  0  0  0
    0.4000    5.6130    7.7640 H   0  0  0  0  0  0  0  0  0  0  0
    2.0310    4.9330    7.8630 H   0  0  0  0  0  0  0  0  0  0  0
    0.7150    6.0850    5.3780 H   0  0  0  0  0  0  0  0  0  0  0
    2.7880    5.4860    4.3700 H   0  0  0  0  0  0  0  0  0  0  0
  1  2  2  0  0  0  0
  1  6  1  0  0  0  0
  1 46  1  0  0  0  0
  2  3  1  0  0  0  0
  2 47  1  0  0  0  0
  3  4  2  0  0  0  0
  3 48  1  0  0  0  0
  4  5  1  0  0  0  0
  4 13  1  0  0  0  0
  5  6  2  0  0  0  0
  5  7  1  0  0  0  0
  6 49  1  0  0  0  0
  7  8  1  0  0  0  0
  7 11  2  0  0  0  0
  7 12  2  0  0  0  0
  8  9  1  0  0  0  0
  8 10  1  0  0  0  0
  8 50  1  0  0  0  0
  9 51  1  0  0  0  0
  9 52  1  0  0  0  0
  9 53  1  0  0  0  0
 10 54  1  0  0  0  0
 10 55  1  0  0  0  0
 10 56  1  0  0  0  0
 13 14  1  0  0  0  0
 13 57  1  0  0  0  0
 14 15  2  0  0  0  0
 14 19  1  0  0  0  0
 15 16  1  0  0  0  0
 15 20  1  0  0  0  0
 16 17  2  0  0  0  0
 16 58  1  0  0  0  0
 17 18  1  0  0  0  0
 18 19  2  0  0  0  0
 18 21  1  0  0  0  0
 21 22  1  0  0  0  0
 21 59  1  0  0  0  0
 22 23  2  0  0  0  0
 22 27  1  0  0  0  0
 23 24  1  0  0  0  0
 23 29  1  0  0  0  0
 24 25  2  0  0  0  0
 24 60  1  0  0  0  0
 25 26  1  0  0  0  0
 25 33  1  0  0  0  0
 26 27  2  0  0  0  0
 26 28  1  0  0  0  0
 27 61  1  0  0  0  0
 28 62  1  0  0  0  0
 28 63  1  0  0  0  0
 28 64  1  0  0  0  0
 29 30  1  0  0  0  0
 30 31  1  0  0  0  0
 30 32  1  0  0  0  0
 30 65  1  0  0  0  0
 31 66  1  0  0  0  0
 31 67  1  0  0  0  0
 31 68  1  0  0  0  0
 32 69  1  0  0  0  0
 32 70  1  0  0  0  0
 32 71  1  0  0  0  0
 33 34  1  0  0  0  0
 33 38  1  0  0  0  0
 33 72  1  0  0  0  0
 34 35  1  0  0  0  0
 34 73  1  0  0  0  0
 34 74  1  0  0  0  0
 35 36  1  0  0  0  0
 35 75  1  0  0  0  0
 35 76  1  0  0  0  0
 36 37  1  0  0  0  0
 36 39  1  0  0  0  0
 37 38  1  0  0  0  0
 37 77  1  0  0  0  0
 37 78  1  0  0  0  0
 38 79  1  0  0  0  0
 38 80  1  0  0  0  0
 39 40  1  0  0  0  0
 39 81  1  0  0  0  0
 39 82  1  0  0  0  0
 40 41  1  6  0  0  0
 40 42  1  0  0  0  0
 40 83  1  0  0  0  0
 41 84  1  0  0  0  0
 42 43  1  0  0  0  0
 42 44  1  0  0  0  0
 42 45  1  0  0  0  0
M  END
> <From>
www.bindingDB.org

> <BindingDB Reactant_set_id>
226245

> <Ligand InChI>
InChI=1S/C31H39ClF3N5O4S/c1-18(2)44-26-15-22(21-10-12-40(13-11-21)17-28(41)31(33,34)35)20(5)14-25(26)38-30-36-16-23(32)29(39-30)37-24-8-6-7-9-27(24)45(42,43)19(3)4/h6-9,14-16,18-19,21,28,41H,10-13,17H2,1-5H3,(H2,36,37,38,39)/t28-/m0/s1

> <Ligand InChI Key>
KLVHMGYISDAIRN-NDEPHWFRSA-N

> <BindingDB MonomerID>
107032

> <BindingDB Ligand Name>
US8592432, 6

> <Target Name Assigned by Curator or DataSource>
ALK tyrosine kinase receptor

> <Target Source Organism According to Curator or DataSource>
Homo sapiens

> <Ki (nM)>


> <IC50 (nM)>
 43

> <Kd (nM)>


> <EC50 (nM)>


> <kon (M-1-s-1)>


> <koff (s-1)>


> <pH>


> <Temp C>


> <Curation/DataSource>
US Patent

> <Article DOI>


> <PMID>


> <PubChem AID>


> <Patent Number>
US8592432

> <Authors>
Chen, B; Jiang, T; Marsilje, TH; Michellys, P; Nguyen, TN; Pei, W; Wu, B; Gao, Z; Ge, Y; Huang, C; Li, Y; Zhu, X

> <Institution>
TBA

> <Link to Ligand in BindingDB>
http://www.bindingdb.org/bind/chemsearch/marvin/MolStructure.jsp?monomerid=107032

> <Link to Ligand-Target Pair in BindingDB>
http://www.bindingdb.org/jsp/dbsearch/PrimarySearch_ki.jsp?energyterm=kJ/mole&tag=pol&polymerid=5809&target=ALK+tyrosine+kinase+receptor&column=ki&startPg=0&Increment=50&submit=Search

> <Link to Ligand-Target Pair in BindingDB>
http://www.bindingdb.org/jsp/dbsearch/PrimarySearch_ki.jsp?energyterm=kJ/mole&tag=r21&monomerid=107032&enzyme=ALK+tyrosine+kinase+receptor&column=ki&startPg=0&Increment=50&submit=Search

> <Ligand HET ID in PDB>


> <PDB ID(s) for Ligand-Target Complex>


> <PubChem CID>
44467545

> <PubChem SID>
175444479

> <ChEBI ID of Ligand>


> <ChEMBL ID of Ligand>


> <DrugBank ID of Ligand>


> <IUPHAR_GRAC ID of Ligand>


> <KEGG ID of Ligand>


> <ZINC ID of Ligand>
ZINC96177888

> <Number of Protein Chains in Target (>1 implies a multichain complex)>
1

> <BindingDB Target Chain Sequence>
MGAIGLLWLLPLLLSTAAVGSGMGTGQRAGSPAAGPPLQPREPLSYSRLQRKSLAVDFVVPSLFRVYARDLLLPPSSSELKAGRPEARGSLALDCAPLLRLLGPAPGVSWTAGSPAPAEARTLSRVLKGGSVRKLRRAKQLVLELGEEAILEGCVGPPGEAAVGLLQFNLSELFSWWIRQGEGRLRIRLMPEKKASEVGREGRLSAAIRASQPRLLFQIFGTGHSSLESPTNMPSPSPDYFTWNLTWIMKDSFPFLSHRSRYGLECSFDFPCELEYSPPLHDLRNQSWSWRRIPSEEASQMDLLDGPGAERSKEMPRGSFLLLNTSADSKHTILSPWMRSSSEHCTLAVSVHRHLQPSGRYIAQLLPHNEAAREILLMPTPGKHGWTVLQGRIGRPDNPFRVALEYISSGNRSLSAVDFFALKNCSEGTSPGSKMALQSSFTCWNGTVLQLGQACDFHQDCAQGEDESQMCRKLPVGFYCNFEDGFCGWTQGTLSPHTPQWQVRTLKDARFQDHQDHALLLSTTDVPASESATVTSATFPAPIKSSPCELRMSWLIRGVLRGNVSLVLVENKTGKEQGRMVWHVAAYEGLSLWQWMVLPLLDVSDRFWLQMVAWWGQGSRAIVAFDNISISLDCYLTISGEDKILQNTAPKSRNLFERNPNKELKPGENSPRQTPIFDPTVHWLFTTCGASGPHGPTQAQCNNAYQNSNLSVEVGSEGPLKGIQIWKVPATDTYSISGYGAAGGKGGKNTMMRSHGVSVLGIFNLEKDDMLYILVGQQGEDACPSTNQLIQKVCIGENNVIEEEIRVNRSVHEWAGGGGGGGGATYVFKMKDGVPVPLIIAAGGGGRAYGAKTDTFHPERLENNSSVLGLNGNSGAAGGGGGWNDNTSLLWAGKSLQEGATGGHSCPQAMKKWGWETRGGFGGGGGGCSSGGGGGGYIGGNAASNNDPEMDGEDGVSFISPLGILYTPALKVMEGHGEVNIKHYLNCSHCEVDECHMDPESHKVICFCDHGTVLAEDGVSCIVSPTPEPHLPLSLILSVVTSALVAALVLAFSGIMIVYRRKHQELQAMQMELQSPEYKLSKLRTSTIMTDYNPNYCFAGKTSSISDLKEVPRKNITLIRGLGHGAFGEVYEGQVSGMPNDPSPLQVAVKTLPEVCSEQDELDFLMEALIISKFNHQNIVRCIGVSLQSLPRFILLELMAGGDLKSFLRETRPRPSQPSSLAMLDLLHVARDIACGCQYLEENHFIHRDIAARNCLLTCPGPGRVAKIGDFGMARDIYRASYYRKGGCAMLPVKWMPPEAFMEGIFTSKTDTWSFGVLLWEIFSLGYMPYPSKSNQEVLEFVTSGGRMDPPKNCPGPVYRIMTQCWQHQPEDRPNFAIILERIEYCTQDPDVINTALPIEYGPLVEEEEKVPVRPKDPEGVPPLLVSQQAKREEERSPAAPPPLPTTSSGKAAKKPTAAEISVRVPRGPAVEGGHVNMAFSQSNPPSELHKVHGSRNKPTSLWNPTYGSWFTEKPTKKNNPIAKKEPHDRGNLGLEGSCTVPPNVATGRLPGASLLLEPSSLTANMKEVPLFRLRHFPCGNVNYGYQQQGLPLEAATAPGAGHYEDTILKSKNSMNQPGP

> <PDB ID(s) of Target Chain>
2XB7,2XBA,3AOX,5FTO,5FTQ,6E0R,6EBW,6EDL,6MX8

> <UniProt (SwissProt) Recommended Name of Target Chain>
ALK tyrosine kinase receptor

> <UniProt (SwissProt) Entry Name of Target Chain>
ALK_HUMAN

> <UniProt (SwissProt) Primary ID of Target Chain>
Q9UM73

> <UniProt (SwissProt) Secondary ID(s) of Target Chain>
Q4ZFX9,Q53QQ6,Q53RZ4,Q59FI3,Q9Y4K6

> <UniProt (SwissProt) Alternative ID(s) of Target Chain>


> <UniProt (TrEMBL) Submitted Name of Target Chain>


> <UniProt (TrEMBL) Entry Name of Target Chain>


> <UniProt (TrEMBL) Primary ID of Target Chain>


> <UniProt (TrEMBL) Secondary ID(s) of Target Chain>


> <UniProt (TrEMBL) Alternative ID(s) of Target Chain>


$$$$
00097001.cdx

Vconf v2.0 Academic SN VC001-00000579
 45 49  0  0  0  0  0  0  0  0999 V2000
   -1.4289    1.9837    0.0000 C   0  0  0  0  0  0  0  0  0  0  0
   -2.1434    1.5712    0.0000 C   0  0  0  0  0  0  0  0  0  0  0
   -2.1434    0.7462    0.0000 C   0  0  0  0  0  0  0  0  0  0  0
   -1.4289    0.3337    0.0000 C   0  0  0  0  0  0  0  0  0  0  0
   -0.7145    0.7462    0.0000 C   0  0  0  0  0  0  0  0  0  0  0
   -0.7145    1.5712    0.0000 C   0  0  0  0  0  0  0  0  0  0  0
   -2.8579    1.9837    0.0000 S   0  0  0  0  0  0  0  0  0  0  0
   -3.5724    1.5712    0.0000 C   0  0  0  0  0  0  0  0  0  0  0
   -4.2868    1.9837    0.0000 C   0  0  0  0  0  0  0  0  0  0  0
   -3.5724    0.7462    0.0000 C   0  0  0  0  0  0  0  0  0  0  0
   -3.2704    2.6982    0.0000 O   0  0  0  0  0  0  0  0  0  0  0
   -2.4454    2.6982    0.0000 O   0  0  0  0  0  0  0  0  0  0  0
   -1.4289    2.8087    0.0000 N   0  0  0  0  0  0  0  0  0  0  0
   -0.7145    3.2212    0.0000 C   0  0  0  0  0  0  0  0  0  0  0
    0.0000    2.8087    0.0000 N   0  0  0  0  0  0  0  0  0  0  0
    0.7145    3.2212    0.0000 C   0  0  0  0  0  0  0  0  0  0  0
    0.7145    4.0462    0.0000 N   0  0  0  0  0  0  0  0  0  0  0
    0.0000    4.4587    0.0000 C   0  0  0  0  0  0  0  0  0  0  0
   -0.7145    4.0462    0.0000 C   0  0  0  0  0  0  0  0  0  0  0
   -1.4289    4.4587    0.0000 Cl  0  0  0  0  0  0  0  0  0  0  0
    1.4289    2.8087    0.0000 N   0  0  0  0  0  0  0  0  0  0  0
    1.4289    1.9837    0.0000 C   0  0  0  0  0  0  0  0  0  0  0
    0.7145    1.5712    0.0000 C   0  0  0  0  0  0  0  0  0  0  0
    0.7145    0.7462    0.0000 C   0  0  0  0  0  0  0  0  0  0  0
    1.4289    0.3337    0.0000 C   0  0  0  0  0  0  0  0  0  0  0
    2.1434    0.7462    0.0000 C   0  0  0  0  0  0  0  0  0  0  0
    2.1434    1.5712    0.0000 C   0  0  0  0  0  0  0  0  0  0  0
    0.0000    0.3337    0.0000 C   0  0  0  0  0  0  0  0  0  0  0
    2.8579    1.9837    0.0000 O   0  0  0  0  0  0  0  0  0  0  0
    3.5724    1.5712    0.0000 C   0  0  0  0  0  0  0  0  0  0  0
    4.2868    1.9837    0.0000 C   0  0  0  0  0  0  0  0  0  0  0
    1.4289   -0.4913    0.0000 C   0  0  0  0  0  0  0  0  0  0  0
    0.7145   -0.9038    0.0000 C   0  0  0  0  0  0  0  0  0  0  0
    0.7145   -1.7288    0.0000 C   0  0  0  0  0  0  0  0  0  0  0
    1.4289   -2.1413    0.0000 N   0  0  0  0  0  0  0  0  0  0  0
    2.1434   -1.7288    0.0000 C   0  0  0  0  0  0  0  0  0  0  0
    2.1434   -0.9038    0.0000 C   0  0  0  0  0  0  0  0  0  0  0
    1.4289   -2.9663    0.0000 C   0  0  0  0  0  0  0  0  0  0  0
    2.1434   -3.3788    0.0000 O   0  0  0  0  0  0  0  0  0  0  0
    0.7145   -3.3788    0.0000 C   0  0  2  0  0  0  0  0  0  0  0
    3.5724    0.7462    0.0000 C   0  0  0  0  0  0  0  0  0  0  0
    0.7145   -4.2038    0.0000 C   0  0  0  0  0  0  0  0  0  0  0
   -0.0702   -3.1238    0.0000 N   0  0  0  0  0  0  0  0  0  0  0
   -0.5551   -3.7913    0.0000 C   0  0  0  0  0  0  0  0  0  0  0
   -0.0702   -4.4587    0.0000 C   0  0  0  0  0  0  0  0  0  0  0
  1  2  4  0  0  0  0
  2  3  4  0  0  0  0
  3  4  4  0  0  0  0
  4  5  4  0  0  0  0
  5  6  4  0  0  0  0
  6  1  4  0  0  0  0
  2  7  1  0  0  0  0
  7  8  1  0  0  0  0
  8  9  1  0  0  0  0
  8 10  1  0  0  0  0
  7 11  2  0  0  0  0
  7 12  2  0  0  0  0
  1 13  1  0  0  0  0
 13 14  1  0  0  0  0
 14 15  4  0  0  0  0
 15 16  4  0  0  0  0
 16 17  4  0  0  0  0
 17 18  4  0  0  0  0
 18 19  4  0  0  0  0
 19 14  4  0  0  0  0
 19 20  1  0  0  0  0
 16 21  1  0  0  0  0
 21 22  1  0  0  0  0
 22 23  4  0  0  0  0
 23 24  4  0  0  0  0
 24 25  4  0  0  0  0
 25 26  4  0  0  0  0
 26 27  4  0  0  0  0
 27 22  4  0  0  0  0
 24 28  1  0  0  0  0
 27 29  1  0  0  0  0
 29 30  1  0  0  0  0
 30 31  1  0  0  0  0
 25 32  1  0  0  0  0
 32 33  1  0  0  0  0
 33 34  1  0  0  0  0
 34 35  1  0  0  0  0
 35 36  1  0  0  0  0
 36 37  1  0  0  0  0
 37 32  1  0  0  0  0
 35 38  1  0  0  0  0
 38 39  2  0  0  0  0
 40 38  1  6  0  0  0
 30 41  1  0  0  0  0
 40 42  1  0  0  0  0
 40 43  1  0  0  0  0
 43 44  1  0  0  0  0
 44 45  1  0  0  0  0
 45 42  1  0  0  0  0
M  END
> <From>
www.bindingDB.org

> <BindingDB Reactant_set_id>
226246

> <Ligand InChI>
InChI=1S/C33H43ClN6O4S/c1-20(2)44-29-18-24(23-12-15-40(16-13-23)32(41)27-10-8-14-35-27)22(5)17-28(29)38-33-36-19-25(34)31(39-33)37-26-9-6-7-11-30(26)45(42,43)21(3)4/h6-7,9,11,17-21,23,27,35H,8,10,12-16H2,1-5H3,(H2,36,37,38,39)/t27-/m0/s1

> <Ligand InChI Key>
YEXFVLALHJYYJX-MHZLTWQESA-N

> <BindingDB MonomerID>
107033

> <BindingDB Ligand Name>
US8592432, 7

> <Target Name Assigned by Curator or DataSource>
ALK tyrosine kinase receptor

> <Target Source Organism According to Curator or DataSource>
Homo sapiens

> <Ki (nM)>


> <IC50 (nM)>
 13

> <Kd (nM)>


> <EC50 (nM)>


> <kon (M-1-s-1)>


> <koff (s-1)>


> <pH>


> <Temp C>


> <Curation/DataSource>
US Patent

> <Article DOI>


> <PMID>


> <PubChem AID>


> <Patent Number>
US8592432

> <Authors>
Chen, B; Jiang, T; Marsilje, TH; Michellys, P; Nguyen, TN; Pei, W; Wu, B; Gao, Z; Ge, Y; Huang, C; Li, Y; Zhu, X

> <Institution>
TBA

> <Link to Ligand in BindingDB>
http://www.bindingdb.org/bind/chemsearch/marvin/MolStructure.jsp?monomerid=107033

> <Link to Ligand-Target Pair in BindingDB>
http://www.bindingdb.org/jsp/dbsearch/PrimarySearch_ki.jsp?energyterm=kJ/mole&tag=pol&polymerid=5809&target=ALK+tyrosine+kinase+receptor&column=ki&startPg=0&Increment=50&submit=Search

> <Link to Ligand-Target Pair in BindingDB>
http://www.bindingdb.org/jsp/dbsearch/PrimarySearch_ki.jsp?energyterm=kJ/mole&tag=r21&monomerid=107033&enzyme=ALK+tyrosine+kinase+receptor&column=ki&startPg=0&Increment=50&submit=Search

> <Ligand HET ID in PDB>


> <PDB ID(s) for Ligand-Target Complex>


> <PubChem CID>
44467546

> <PubChem SID>
175444480

> <ChEBI ID of Ligand>


> <ChEMBL ID of Ligand>


> <DrugBank ID of Ligand>


> <IUPHAR_GRAC ID of Ligand>


> <KEGG ID of Ligand>


> <ZINC ID of Ligand>
ZINC96177889

> <Number of Protein Chains in Target (>1 implies a multichain complex)>
1

> <BindingDB Target Chain Sequence>
MGAIGLLWLLPLLLSTAAVGSGMGTGQRAGSPAAGPPLQPREPLSYSRLQRKSLAVDFVVPSLFRVYARDLLLPPSSSELKAGRPEARGSLALDCAPLLRLLGPAPGVSWTAGSPAPAEARTLSRVLKGGSVRKLRRAKQLVLELGEEAILEGCVGPPGEAAVGLLQFNLSELFSWWIRQGEGRLRIRLMPEKKASEVGREGRLSAAIRASQPRLLFQIFGTGHSSLESPTNMPSPSPDYFTWNLTWIMKDSFPFLSHRSRYGLECSFDFPCELEYSPPLHDLRNQSWSWRRIPSEEASQMDLLDGPGAERSKEMPRGSFLLLNTSADSKHTILSPWMRSSSEHCTLAVSVHRHLQPSGRYIAQLLPHNEAAREILLMPTPGKHGWTVLQGRIGRPDNPFRVALEYISSGNRSLSAVDFFALKNCSEGTSPGSKMALQSSFTCWNGTVLQLGQACDFHQDCAQGEDESQMCRKLPVGFYCNFEDGFCGWTQGTLSPHTPQWQVRTLKDARFQDHQDHALLLSTTDVPASESATVTSATFPAPIKSSPCELRMSWLIRGVLRGNVSLVLVENKTGKEQGRMVWHVAAYEGLSLWQWMVLPLLDVSDRFWLQMVAWWGQGSRAIVAFDNISISLDCYLTISGEDKILQNTAPKSRNLFERNPNKELKPGENSPRQTPIFDPTVHWLFTTCGASGPHGPTQAQCNNAYQNSNLSVEVGSEGPLKGIQIWKVPATDTYSISGYGAAGGKGGKNTMMRSHGVSVLGIFNLEKDDMLYILVGQQGEDACPSTNQLIQKVCIGENNVIEEEIRVNRSVHEWAGGGGGGGGATYVFKMKDGVPVPLIIAAGGGGRAYGAKTDTFHPERLENNSSVLGLNGNSGAAGGGGGWNDNTSLLWAGKSLQEGATGGHSCPQAMKKWGWETRGGFGGGGGGCSSGGGGGGYIGGNAASNNDPEMDGEDGVSFISPLGILYTPALKVMEGHGEVNIKHYLNCSHCEVDECHMDPESHKVICFCDHGTVLAEDGVSCIVSPTPEPHLPLSLILSVVTSALVAALVLAFSGIMIVYRRKHQELQAMQMELQSPEYKLSKLRTSTIMTDYNPNYCFAGKTSSISDLKEVPRKNITLIRGLGHGAFGEVYEGQVSGMPNDPSPLQVAVKTLPEVCSEQDELDFLMEALIISKFNHQNIVRCIGVSLQSLPRFILLELMAGGDLKSFLRETRPRPSQPSSLAMLDLLHVARDIACGCQYLEENHFIHRDIAARNCLLTCPGPGRVAKIGDFGMARDIYRASYYRKGGCAMLPVKWMPPEAFMEGIFTSKTDTWSFGVLLWEIFSLGYMPYPSKSNQEVLEFVTSGGRMDPPKNCPGPVYRIMTQCWQHQPEDRPNFAIILERIEYCTQDPDVINTALPIEYGPLVEEEEKVPVRPKDPEGVPPLLVSQQAKREEERSPAAPPPLPTTSSGKAAKKPTAAEISVRVPRGPAVEGGHVNMAFSQSNPPSELHKVHGSRNKPTSLWNPTYGSWFTEKPTKKNNPIAKKEPHDRGNLGLEGSCTVPPNVATGRLPGASLLLEPSSLTANMKEVPLFRLRHFPCGNVNYGYQQQGLPLEAATAPGAGHYEDTILKSKNSMNQPGP

> <PDB ID(s) of Target Chain>
2XB7,2XBA,3AOX,5FTO,5FTQ,6E0R,6EBW,6EDL,6MX8

> <UniProt (SwissProt) Recommended Name of Target Chain>
ALK tyrosine kinase receptor

> <UniProt (SwissProt) Entry Name of Target Chain>
ALK_HUMAN

> <UniProt (SwissProt) Primary ID of Target Chain>
Q9UM73

> <UniProt (SwissProt) Secondary ID(s) of Target Chain>
Q4ZFX9,Q53QQ6,Q53RZ4,Q59FI3,Q9Y4K6

> <UniProt (SwissProt) Alternative ID(s) of Target Chain>


> <UniProt (TrEMBL) Submitted Name of Target Chain>


> <UniProt (TrEMBL) Entry Name of Target Chain>


> <UniProt (TrEMBL) Primary ID of Target Chain>


> <UniProt (TrEMBL) Secondary ID(s) of Target Chain>


> <UniProt (TrEMBL) Alternative ID(s) of Target Chain>


$$$$
00098001.cdx

Vconf v2.0 Academic SN VC001-00000579
 82 86  0  0  0  0  0  0  0  0999 V2000
   -2.0210    2.4570   -0.3730 C   0  0  0  0  0  0  0  0  0  0  0
   -3.2480    1.8890    0.0090 C   0  0  0  0  0  0  0  0  0  0  0
   -3.2870    0.6800    0.6180 N   0  0  0  0  0  0  0  0  0  0  0
   -2.1580   -0.0160    0.8800 C   0  0  0  0  0  0  0  0  0  0  0
   -0.9710    0.5320    0.5290 N   0  0  0  0  0  0  0  0  0  0  0
   -0.8450    1.7350   -0.0780 C   0  0  0  0  0  0  0  0  0  0  0
   -2.0070    3.9580   -1.1600 Cl  0  0  0  0  0  0  0  0  0  0  0
   -2.2400   -1.2350    1.4630 N   0  0  0  0  0  0  0  0  0  0  0
   -1.1620   -2.0190    1.7080 C   0  0  0  0  0  0  0  0  0  0  0
   -0.4500   -2.6340    0.6580 C   0  0  0  0  0  0  0  0  0  0  0
    0.6660   -3.4320    0.9560 C   0  0  0  0  0  0  0  0  0  0  0
    1.1100   -3.6130    2.2830 C   0  0  0  0  0  0  0  0  0  0  0
    0.3880   -2.9940    3.3350 C   0  0  0  0  0  0  0  0  0  0  0
   -0.7450   -2.2110    3.0360 C   0  0  0  0  0  0  0  0  0  0  0
    0.7980   -3.1440    4.7440 C   0  0  0  0  0  0  0  0  0  0  0
   -0.8790   -2.4740   -0.6260 O   0  0  0  0  0  0  0  0  0  0  0
   -0.0950   -1.7540   -1.5870 C   0  0  0  0  0  0  0  0  0  0  0
    0.9430   -2.6500   -2.2820 C   0  0  0  0  0  0  0  0  0  0  0
   -1.0650   -1.1900   -2.6330 C   0  0  0  0  0  0  0  0  0  0  0
    2.3220   -4.4410    2.5270 C   0  0  1  0  0  0  0  0  0  0  0
    2.1460   -5.8920    2.0280 C   0  0  0  0  0  0  0  0  0  0  0
    3.4310   -6.6950    2.2820 C   0  0  0  0  0  0  0  0  0  0  0
    4.5400   -6.0360    1.6590 N   0  0  0  0  0  0  0  0  0  0  0
    4.8010   -4.7070    2.1230 C   0  0  0  0  0  0  0  0  0  0  0
    3.5720   -3.8210    1.8650 C   0  0  0  0  0  0  0  0  0  0  0
    5.2740   -6.6450    0.6760 C   0  0  0  0  0  0  0  0  0  0  0
    4.9620   -7.8000    0.3040 O   0  0  0  0  0  0  0  0  0  0  0
    7.5260   -5.7460    0.9440 N   0  0  0  0  0  0  0  0  0  0  0
    8.6590   -5.4070    0.0750 C   0  0  0  0  0  0  0  0  0  0  0
    8.4710   -6.1960   -1.2260 C   0  0  0  0  0  0  0  0  0  0  0
    7.0740   -6.8050   -1.1090 C   0  0  0  0  0  0  0  0  0  0  0
    6.4170   -5.9860    0.0110 C   0  0  1  0  0  0  0  0  0  0  0
    0.3730    2.2260   -0.4470 N   0  0  0  0  0  0  0  0  0  0  0
    1.6310    1.7320   -0.2350 C   0  0  0  0  0  0  0  0  0  0  0
    2.6880    2.3730   -0.9240 C   0  0  0  0  0  0  0  0  0  0  0
    4.0150    1.9290   -0.7660 C   0  0  0  0  0  0  0  0  0  0  0
    4.3080    0.8480    0.0780 C   0  0  0  0  0  0  0  0  0  0  0
    3.2730    0.2060    0.7710 C   0  0  0  0  0  0  0  0  0  0  0
    1.9490    0.6470    0.6190 C   0  0  0  0  0  0  0  0  0  0  0
    2.3820    3.6890   -2.0250 S   0  0  0  0  0  0  0  0  0  0  0
    1.3900    4.6980   -1.2960 O   0  0  0  0  0  0  0  0  0  0  0
    3.7570    4.1910   -2.6500 O   0  0  0  0  0  0  0  0  0  0  0
    1.4280    2.9980   -3.3960 C   0  0  0  0  0  0  0  0  0  0  0
    1.1720    3.9730   -4.3270 F   0  0  0  0  0  0  0  0  0  0  0
    2.1200    1.9760   -3.9970 F   0  0  0  0  0  0  0  0  0  0  0
   -4.1250    2.3780   -0.1770 H   0  0  0  0  0  0  0  0  0  0  0
   -3.1150   -1.5580    1.7250 H   0  0  0  0  0  0  0  0  0  0  0
    1.1620   -3.8950    0.1960 H   0  0  0  0  0  0  0  0  0  0  0
   -1.2650   -1.7630    3.7920 H   0  0  0  0  0  0  0  0  0  0  0
    0.1290   -2.6020    5.4150 H   0  0  0  0  0  0  0  0  0  0  0
    0.7820   -4.1990    5.0200 H   0  0  0  0  0  0  0  0  0  0  0
    1.8080   -2.7520    4.8740 H   0  0  0  0  0  0  0  0  0  0  0
    0.4170   -0.9140   -1.1200 H   0  0  0  0  0  0  0  0  0  0  0
    1.3450   -2.1360   -3.1560 H   0  0  0  0  0  0  0  0  0  0  0
    1.7650   -2.8650   -1.6020 H   0  0  0  0  0  0  0  0  0  0  0
    0.4730   -3.5820   -2.5960 H   0  0  0  0  0  0  0  0  0  0  0
   -0.5160   -0.5970   -3.3650 H   0  0  0  0  0  0  0  0  0  0  0
   -1.5780   -2.0080   -3.1400 H   0  0  0  0  0  0  0  0  0  0  0
   -1.8020   -0.5560   -2.1400 H   0  0  0  0  0  0  0  0  0  0  0
    2.5310   -4.5010    3.5940 H   0  0  0  0  0  0  0  0  0  0  0
    1.9350   -5.9070    0.9580 H   0  0  0  0  0  0  0  0  0  0  0
    1.3190   -6.3650    2.5600 H   0  0  0  0  0  0  0  0  0  0  0
    3.6100   -6.7540    3.3560 H   0  0  0  0  0  0  0  0  0  0  0
    3.2800   -7.7090    1.9080 H   0  0  0  0  0  0  0  0  0  0  0
    5.6580   -4.2430    1.6370 H   0  0  0  0  0  0  0  0  0  0  0
    4.9980   -4.7390    3.1960 H   0  0  0  0  0  0  0  0  0  0  0
    3.4300   -3.7300    0.7870 H   0  0  0  0  0  0  0  0  0  0  0
    3.7560   -2.8310    2.2850 H   0  0  0  0  0  0  0  0  0  0  0
    7.7430   -6.6550    1.3560 H   0  0  0  0  0  0  0  0  0  0  0
    8.6450   -4.3380   -0.1390 H   0  0  0  0  0  0  0  0  0  0  0
    9.6010   -5.6720    0.5580 H   0  0  0  0  0  0  0  0  0  0  0
    8.5250   -5.5240   -2.0830 H   0  0  0  0  0  0  0  0  0  0  0
    9.2220   -6.9820   -1.3180 H   0  0  0  0  0  0  0  0  0  0  0
    7.1630   -7.8550   -0.8230 H   0  0  0  0  0  0  0  0  0  0  0
    6.5190   -6.7150   -2.0440 H   0  0  0  0  0  0  0  0  0  0  0
    6.0820   -5.0360   -0.4090 H   0  0  0  0  0  0  0  0  0  0  0
    0.3330    3.0520   -0.9530 H   0  0  0  0  0  0  0  0  0  0  0
    4.7710    2.3900   -1.2720 H   0  0  0  0  0  0  0  0  0  0  0
    5.2720    0.5310    0.1890 H   0  0  0  0  0  0  0  0  0  0  0
    3.4810   -0.5770    1.3910 H   0  0  0  0  0  0  0  0  0  0  0
    1.2290    0.1680    1.1550 H   0  0  0  0  0  0  0  0  0  0  0
    0.4800    2.6120   -3.0240 H   0  0  0  0  0  0  0  0  0  0  0
  1  2  2  0  0  0  0
  1  6  1  0  0  0  0
  1  7  1  0  0  0  0
  2  3  1  0  0  0  0
  2 46  1  0  0  0  0
  3  4  2  0  0  0  0
  4  5  1  0  0  0  0
  4  8  1  0  0  0  0
  5  6  2  0  0  0  0
  6 33  1  0  0  0  0
  8  9  1  0  0  0  0
  8 47  1  0  0  0  0
  9 10  2  0  0  0  0
  9 14  1  0  0  0  0
 10 11  1  0  0  0  0
 10 16  1  0  0  0  0
 11 12  2  0  0  0  0
 11 48  1  0  0  0  0
 12 13  1  0  0  0  0
 12 20  1  0  0  0  0
 13 14  2  0  0  0  0
 13 15  1  0  0  0  0
 14 49  1  0  0  0  0
 15 50  1  0  0  0  0
 15 51  1  0  0  0  0
 15 52  1  0  0  0  0
 16 17  1  0  0  0  0
 17 18  1  0  0  0  0
 17 19  1  0  0  0  0
 17 53  1  0  0  0  0
 18 54  1  0  0  0  0
 18 55  1  0  0  0  0
 18 56  1  0  0  0  0
 19 57  1  0  0  0  0
 19 58  1  0  0  0  0
 19 59  1  0  0  0  0
 20 21  1  0  0  0  0
 20 25  1  0  0  0  0
 20 60  1  0  0  0  0
 21 22  1  0  0  0  0
 21 61  1  0  0  0  0
 21 62  1  0  0  0  0
 22 23  1  0  0  0  0
 22 63  1  0  0  0  0
 22 64  1  0  0  0  0
 23 24  1  0  0  0  0
 23 26  1  0  0  0  0
 24 25  1  0  0  0  0
 24 65  1  0  0  0  0
 24 66  1  0  0  0  0
 25 67  1  0  0  0  0
 25 68  1  0  0  0  0
 26 27  2  0  0  0  0
 32 26  1  6  0  0  0
 28 29  1  0  0  0  0
 28 32  1  0  0  0  0
 28 69  1  0  0  0  0
 29 30  1  0  0  0  0
 29 70  1  0  0  0  0
 29 71  1  0  0  0  0
 30 31  1  0  0  0  0
 30 72  1  0  0  0  0
 30 73  1  0  0  0  0
 31 32  1  0  0  0  0
 31 74  1  0  0  0  0
 31 75  1  0  0  0  0
 32 76  1  0  0  0  0
 33 34  1  0  0  0  0
 33 77  1  0  0  0  0
 34 35  2  0  0  0  0
 34 39  1  0  0  0  0
 35 36  1  0  0  0  0
 35 40  1  0  0  0  0
 36 37  2  0  0  0  0
 36 78  1  0  0  0  0
 37 38  1  0  0  0  0
 37 79  1  0  0  0  0
 38 39  2  0  0  0  0
 38 80  1  0  0  0  0
 39 81  1  0  0  0  0
 40 41  2  0  0  0  0
 40 42  2  0  0  0  0
 40 43  1  0  0  0  0
 43 44  1  0  0  0  0
 43 45  1  0  0  0  0
 43 82  1  0  0  0  0
M  END
> <From>
www.bindingDB.org

> <BindingDB Reactant_set_id>
226247

> <Ligand InChI>
InChI=1S/C31H37ClF2N6O4S/c1-18(2)44-26-16-21(20-10-13-40(14-11-20)29(41)24-8-6-12-35-24)19(3)15-25(26)38-31-36-17-22(32)28(39-31)37-23-7-4-5-9-27(23)45(42,43)30(33)34/h4-5,7,9,15-18,20,24,30,35H,6,8,10-14H2,1-3H3,(H2,36,37,38,39)/t24-/m0/s1

> <Ligand InChI Key>
NCSKMTZNHAGRSD-DEOSSOPVSA-N

> <BindingDB MonomerID>
107034

> <BindingDB Ligand Name>
US8592432, 8

> <Target Name Assigned by Curator or DataSource>
ALK tyrosine kinase receptor

> <Target Source Organism According to Curator or DataSource>
Homo sapiens

> <Ki (nM)>


> <IC50 (nM)>
 34

> <Kd (nM)>


> <EC50 (nM)>


> <kon (M-1-s-1)>


> <koff (s-1)>


> <pH>


> <Temp C>


> <Curation/DataSource>
US Patent

> <Article DOI>


> <PMID>


> <PubChem AID>


> <Patent Number>
US8592432

> <Authors>
Chen, B; Jiang, T; Marsilje, TH; Michellys, P; Nguyen, TN; Pei, W; Wu, B; Gao, Z; Ge, Y; Huang, C; Li, Y; Zhu, X

> <Institution>
TBA

> <Link to Ligand in BindingDB>
http://www.bindingdb.org/bind/chemsearch/marvin/MolStructure.jsp?monomerid=107034

> <Link to Ligand-Target Pair in BindingDB>
http://www.bindingdb.org/jsp/dbsearch/PrimarySearch_ki.jsp?energyterm=kJ/mole&tag=pol&polymerid=5809&target=ALK+tyrosine+kinase+receptor&column=ki&startPg=0&Increment=50&submit=Search

> <Link to Ligand-Target Pair in BindingDB>
http://www.bindingdb.org/jsp/dbsearch/PrimarySearch_ki.jsp?energyterm=kJ/mole&tag=r21&monomerid=107034&enzyme=ALK+tyrosine+kinase+receptor&column=ki&startPg=0&Increment=50&submit=Search

> <Ligand HET ID in PDB>


> <PDB ID(s) for Ligand-Target Complex>


> <PubChem CID>
44467547

> <PubChem SID>
175444481

> <ChEBI ID of Ligand>


> <ChEMBL ID of Ligand>


> <DrugBank ID of Ligand>


> <IUPHAR_GRAC ID of Ligand>


> <KEGG ID of Ligand>


> <ZINC ID of Ligand>
ZINC96177890

> <Number of Protein Chains in Target (>1 implies a multichain complex)>
1

> <BindingDB Target Chain Sequence>
MGAIGLLWLLPLLLSTAAVGSGMGTGQRAGSPAAGPPLQPREPLSYSRLQRKSLAVDFVVPSLFRVYARDLLLPPSSSELKAGRPEARGSLALDCAPLLRLLGPAPGVSWTAGSPAPAEARTLSRVLKGGSVRKLRRAKQLVLELGEEAILEGCVGPPGEAAVGLLQFNLSELFSWWIRQGEGRLRIRLMPEKKASEVGREGRLSAAIRASQPRLLFQIFGTGHSSLESPTNMPSPSPDYFTWNLTWIMKDSFPFLSHRSRYGLECSFDFPCELEYSPPLHDLRNQSWSWRRIPSEEASQMDLLDGPGAERSKEMPRGSFLLLNTSADSKHTILSPWMRSSSEHCTLAVSVHRHLQPSGRYIAQLLPHNEAAREILLMPTPGKHGWTVLQGRIGRPDNPFRVALEYISSGNRSLSAVDFFALKNCSEGTSPGSKMALQSSFTCWNGTVLQLGQACDFHQDCAQGEDESQMCRKLPVGFYCNFEDGFCGWTQGTLSPHTPQWQVRTLKDARFQDHQDHALLLSTTDVPASESATVTSATFPAPIKSSPCELRMSWLIRGVLRGNVSLVLVENKTGKEQGRMVWHVAAYEGLSLWQWMVLPLLDVSDRFWLQMVAWWGQGSRAIVAFDNISISLDCYLTISGEDKILQNTAPKSRNLFERNPNKELKPGENSPRQTPIFDPTVHWLFTTCGASGPHGPTQAQCNNAYQNSNLSVEVGSEGPLKGIQIWKVPATDTYSISGYGAAGGKGGKNTMMRSHGVSVLGIFNLEKDDMLYILVGQQGEDACPSTNQLIQKVCIGENNVIEEEIRVNRSVHEWAGGGGGGGGATYVFKMKDGVPVPLIIAAGGGGRAYGAKTDTFHPERLENNSSVLGLNGNSGAAGGGGGWNDNTSLLWAGKSLQEGATGGHSCPQAMKKWGWETRGGFGGGGGGCSSGGGGGGYIGGNAASNNDPEMDGEDGVSFISPLGILYTPALKVMEGHGEVNIKHYLNCSHCEVDECHMDPESHKVICFCDHGTVLAEDGVSCIVSPTPEPHLPLSLILSVVTSALVAALVLAFSGIMIVYRRKHQELQAMQMELQSPEYKLSKLRTSTIMTDYNPNYCFAGKTSSISDLKEVPRKNITLIRGLGHGAFGEVYEGQVSGMPNDPSPLQVAVKTLPEVCSEQDELDFLMEALIISKFNHQNIVRCIGVSLQSLPRFILLELMAGGDLKSFLRETRPRPSQPSSLAMLDLLHVARDIACGCQYLEENHFIHRDIAARNCLLTCPGPGRVAKIGDFGMARDIYRASYYRKGGCAMLPVKWMPPEAFMEGIFTSKTDTWSFGVLLWEIFSLGYMPYPSKSNQEVLEFVTSGGRMDPPKNCPGPVYRIMTQCWQHQPEDRPNFAIILERIEYCTQDPDVINTALPIEYGPLVEEEEKVPVRPKDPEGVPPLLVSQQAKREEERSPAAPPPLPTTSSGKAAKKPTAAEISVRVPRGPAVEGGHVNMAFSQSNPPSELHKVHGSRNKPTSLWNPTYGSWFTEKPTKKNNPIAKKEPHDRGNLGLEGSCTVPPNVATGRLPGASLLLEPSSLTANMKEVPLFRLRHFPCGNVNYGYQQQGLPLEAATAPGAGHYEDTILKSKNSMNQPGP

> <PDB ID(s) of Target Chain>
2XB7,2XBA,3AOX,5FTO,5FTQ,6E0R,6EBW,6EDL,6MX8

> <UniProt (SwissProt) Recommended Name of Target Chain>
ALK tyrosine kinase receptor

> <UniProt (SwissProt) Entry Name of Target Chain>
ALK_HUMAN

> <UniProt (SwissProt) Primary ID of Target Chain>
Q9UM73

> <UniProt (SwissProt) Secondary ID(s) of Target Chain>
Q4ZFX9,Q53QQ6,Q53RZ4,Q59FI3,Q9Y4K6

> <UniProt (SwissProt) Alternative ID(s) of Target Chain>


> <UniProt (TrEMBL) Submitted Name of Target Chain>


> <UniProt (TrEMBL) Entry Name of Target Chain>


> <UniProt (TrEMBL) Primary ID of Target Chain>


> <UniProt (TrEMBL) Secondary ID(s) of Target Chain>


> <UniProt (TrEMBL) Alternative ID(s) of Target Chain>


$$$$
00099001.cdx

Vconf v2.0 Academic SN VC001-00000579
 89 93  0  0  0  0  0  0  0  0999 V2000
   -1.9390    2.9390    0.0240 C   0  0  0  0  0  0  0  0  0  0  0
   -3.3000    2.8660    0.4160 C   0  0  0  0  0  0  0  0  0  0  0
   -3.9440    1.6150    0.5180 C   0  0  0  0  0  0  0  0  0  0  0
   -3.2490    0.4270    0.2530 C   0  0  0  0  0  0  0  0  0  0  0
   -1.8980    0.4820   -0.1090 C   0  0  0  0  0  0  0  0  0  0  0
   -1.2510    1.7230   -0.2130 C   0  0  0  0  0  0  0  0  0  0  0
   -4.2700    4.2800    0.7490 S   0  0  0  0  0  0  0  0  0  0  0
   -5.0640    4.7570   -0.8040 C   0  0  0  0  0  0  0  0  0  0  0
   -5.9540    5.9890   -0.5750 C   0  0  0  0  0  0  0  0  0  0  0
   -4.0230    5.0600   -1.8930 C   0  0  0  0  0  0  0  0  0  0  0
   -5.4990    3.8200    1.6470 O   0  0  0  0  0  0  0  0  0  0  0
   -3.4040    5.5370    1.1990 O   0  0  0  0  0  0  0  0  0  0  0
   -1.3770    4.1840   -0.0980 N   0  0  0  0  0  0  0  0  0  0  0
   -0.1610    4.5630   -0.5990 C   0  0  0  0  0  0  0  0  0  0  0
    0.6740    3.6760   -1.1890 N   0  0  0  0  0  0  0  0  0  0  0
    1.8710    3.9990   -1.7340 C   0  0  0  0  0  0  0  0  0  0  0
    2.2690    5.2880   -1.6740 N   0  0  0  0  0  0  0  0  0  0  0
    1.4970    6.2420   -1.1020 C   0  0  0  0  0  0  0  0  0  0  0
    0.2440    5.9140   -0.5520 C   0  0  0  0  0  0  0  0  0  0  0
   -0.7010    7.1380    0.1390 Cl  0  0  0  0  0  0  0  0  0  0  0
    2.6660    3.0730   -2.3310 N   0  0  0  0  0  0  0  0  0  0  0
    2.3630    1.7550   -2.4590 C   0  0  0  0  0  0  0  0  0  0  0
    1.0830    1.3740   -2.9270 C   0  0  0  0  0  0  0  0  0  0  0
    0.7540    0.0160   -2.9870 C   0  0  0  0  0  0  0  0  0  0  0
    1.6780   -0.9660   -2.6670 C   0  0  0  0  0  0  0  0  0  0  0
    2.9750   -0.6130   -2.2570 C   0  0  0  0  0  0  0  0  0  0  0
    3.3170    0.7520   -2.1280 C   0  0  0  0  0  0  0  0  0  0  0
    4.5820    1.0000   -1.6630 O   0  0  0  0  0  0  0  0  0  0  0
    4.9290    2.0520   -0.7500 C   0  0  0  0  0  0  0  0  0  0  0
    4.1070    1.9860    0.5480 C   0  0  0  0  0  0  0  0  0  0  0
    6.4170    1.9070   -0.3990 C   0  0  0  0  0  0  0  0  0  0  0
   -0.4450   -0.5990   -3.2800 C   0  0  0  0  0  0  0  0  0  0  0
   -0.2880   -1.9400   -3.1460 N   0  0  0  0  0  0  0  0  0  0  0
    1.0550   -2.2870   -2.7920 C   0  0  0  0  0  0  0  0  0  0  0
   -1.3350   -2.9040   -3.2630 C   0  0  0  0  0  0  0  0  0  0  0
   -2.3630   -2.7150   -2.1270 C   0  0  0  0  0  0  0  0  0  0  0
   -3.5490   -3.6760   -2.2990 C   0  0  0  0  0  0  0  0  0  0  0
   -4.1080   -3.4480   -3.5940 N   0  0  0  0  0  0  0  0  0  0  0
   -3.2470   -3.7720   -4.6880 C   0  0  0  0  0  0  0  0  0  0  0
   -2.0230   -2.8450   -4.6450 C   0  0  0  0  0  0  0  0  0  0  0
   -5.3320   -2.8560   -3.7450 C   0  0  0  0  0  0  0  0  0  0  0
   -6.0330   -2.6070   -2.7380 O   0  0  0  0  0  0  0  0  0  0  0
   -5.8440   -2.3890   -5.0440 C   0  0  0  0  0  0  0  0  0  0  0
   -4.9410   -1.4010   -5.6800 N   0  0  0  0  0  0  0  0  0  0  0
   -5.4390   -1.0730   -7.0270 C   0  0  0  0  0  0  0  0  0  0  0
   -4.8210   -0.1600   -4.8860 C   0  0  0  0  0  0  0  0  0  0  0
   -1.5150    0.0010   -3.5270 O   0  0  0  0  0  0  0  0  0  0  0
   -4.9290    1.5690    0.7790 H   0  0  0  0  0  0  0  0  0  0  0
   -3.7240   -0.4740    0.3250 H   0  0  0  0  0  0  0  0  0  0  0
   -1.3820   -0.3800   -0.2900 H   0  0  0  0  0  0  0  0  0  0  0
   -0.2650    1.7130   -0.4530 H   0  0  0  0  0  0  0  0  0  0  0
   -5.6930    3.9320   -1.1400 H   0  0  0  0  0  0  0  0  0  0  0
   -6.5110    6.2190   -1.4840 H   0  0  0  0  0  0  0  0  0  0  0
   -6.6580    5.7820    0.2320 H   0  0  0  0  0  0  0  0  0  0  0
   -5.3400    6.8470   -0.3010 H   0  0  0  0  0  0  0  0  0  0  0
   -4.5260    5.3980   -2.8000 H   0  0  0  0  0  0  0  0  0  0  0
   -3.3390    5.8360   -1.5480 H   0  0  0  0  0  0  0  0  0  0  0
   -3.4590    4.1560   -2.1200 H   0  0  0  0  0  0  0  0  0  0  0
   -1.9300    4.9200    0.2000 H   0  0  0  0  0  0  0  0  0  0  0
    1.8370    7.2040   -1.0810 H   0  0  0  0  0  0  0  0  0  0  0
    3.5340    3.3690   -2.6450 H   0  0  0  0  0  0  0  0  0  0  0
    0.3850    2.0760   -3.1760 H   0  0  0  0  0  0  0  0  0  0  0
    3.6520   -1.3380   -2.0190 H   0  0  0  0  0  0  0  0  0  0  0
    4.7990    3.0280   -1.2150 H   0  0  0  0  0  0  0  0  0  0  0
    4.4370    2.7700    1.2300 H   0  0  0  0  0  0  0  0  0  0  0
    3.0500    2.1310    0.3300 H   0  0  0  0  0  0  0  0  0  0  0
    4.2460    1.0140    1.0240 H   0  0  0  0  0  0  0  0  0  0  0
    6.7140    2.7090    0.2780 H   0  0  0  0  0  0  0  0  0  0  0
    6.5920    0.9430    0.0830 H   0  0  0  0  0  0  0  0  0  0  0
    7.0130    1.9670   -1.3100 H   0  0  0  0  0  0  0  0  0  0  0
    1.5280   -2.8780   -3.5770 H   0  0  0  0  0  0  0  0  0  0  0
    1.0790   -2.8190   -1.8390 H   0  0  0  0  0  0  0  0  0  0  0
   -0.9060   -3.9020   -3.1510 H   0  0  0  0  0  0  0  0  0  0  0
   -2.7460   -1.6930   -2.1370 H   0  0  0  0  0  0  0  0  0  0  0
   -1.8840   -2.9020   -1.1660 H   0  0  0  0  0  0  0  0  0  0  0
   -3.2030   -4.7080   -2.2220 H   0  0  0  0  0  0  0  0  0  0  0
   -4.2620   -3.4930   -1.4920 H   0  0  0  0  0  0  0  0  0  0  0
   -2.9170   -4.8080   -4.5900 H   0  0  0  0  0  0  0  0  0  0  0
   -3.7360   -3.6650   -5.6570 H   0  0  0  0  0  0  0  0  0  0  0
   -2.3620   -1.8300   -4.8550 H   0  0  0  0  0  0  0  0  0  0  0
   -1.3140   -3.1460   -5.4160 H   0  0  0  0  0  0  0  0  0  0  0
   -5.9570   -3.2550   -5.6960 H   0  0  0  0  0  0  0  0  0  0  0
   -6.8280   -1.9390   -4.9020 H   0  0  0  0  0  0  0  0  0  0  0
   -4.7380   -0.4000   -7.5240 H   0  0  0  0  0  0  0  0  0  0  0
   -5.5260   -1.9830   -7.6220 H   0  0  0  0  0  0  0  0  0  0  0
   -6.4160   -0.5900   -6.9670 H   0  0  0  0  0  0  0  0  0  0  0
   -4.1910    0.5560   -5.4140 H   0  0  0  0  0  0  0  0  0  0  0
   -5.8040    0.2830   -4.7190 H   0  0  0  0  0  0  0  0  0  0  0
   -4.3570   -0.3730   -3.9220 H   0  0  0  0  0  0  0  0  0  0  0
  1  2  2  0  0  0  0
  1  6  1  0  0  0  0
  1 13  1  0  0  0  0
  2  3  1  0  0  0  0
  2  7  1  0  0  0  0
  3  4  2  0  0  0  0
  3 48  1  0  0  0  0
  4  5  1  0  0  0  0
  4 49  1  0  0  0  0
  5  6  2  0  0  0  0
  5 50  1  0  0  0  0
  6 51  1  0  0  0  0
  7  8  1  0  0  0  0
  7 11  2  0  0  0  0
  7 12  2  0  0  0  0
  8  9  1  0  0  0  0
  8 10  1  0  0  0  0
  8 52  1  0  0  0  0
  9 53  1  0  0  0  0
  9 54  1  0  0  0  0
  9 55  1  0  0  0  0
 10 56  1  0  0  0  0
 10 57  1  0  0  0  0
 10 58  1  0  0  0  0
 13 14  1  0  0  0  0
 13 59  1  0  0  0  0
 14 15  2  0  0  0  0
 14 19  1  0  0  0  0
 15 16  1  0  0  0  0
 16 17  2  0  0  0  0
 16 21  1  0  0  0  0
 17 18  1  0  0  0  0
 18 19  2  0  0  0  0
 18 60  1  0  0  0  0
 19 20  1  0  0  0  0
 21 22  1  0  0  0  0
 21 61  1  0  0  0  0
 22 23  2  0  0  0  0
 22 27  1  0  0  0  0
 23 24  1  0  0  0  0
 23 62  1  0  0  0  0
 24 25  2  0  0  0  0
 24 32  1  0  0  0  0
 25 26  1  0  0  0  0
 25 34  1  0  0  0  0
 26 27  2  0  0  0  0
 26 63  1  0  0  0  0
 27 28  1  0  0  0  0
 28 29  1  0  0  0  0
 29 30  1  0  0  0  0
 29 31  1  0  0  0  0
 29 64  1  0  0  0  0
 30 65  1  0  0  0  0
 30 66  1  0  0  0  0
 30 67  1  0  0  0  0
 31 68  1  0  0  0  0
 31 69  1  0  0  0  0
 31 70  1  0  0  0  0
 32 33  1  0  0  0  0
 32 47  2  0  0  0  0
 33 34  1  0  0  0  0
 33 35  1  0  0  0  0
 34 71  1  0  0  0  0
 34 72  1  0  0  0  0
 35 36  1  0  0  0  0
 35 40  1  0  0  0  0
 35 73  1  0  0  0  0
 36 37  1  0  0  0  0
 36 74  1  0  0  0  0
 36 75  1  0  0  0  0
 37 38  1  0  0  0  0
 37 76  1  0  0  0  0
 37 77  1  0  0  0  0
 38 39  1  0  0  0  0
 38 41  1  0  0  0  0
 39 40  1  0  0  0  0
 39 78  1  0  0  0  0
 39 79  1  0  0  0  0
 40 80  1  0  0  0  0
 40 81  1  0  0  0  0
 41 42  2  0  0  0  0
 41 43  1  0  0  0  0
 43 44  1  0  0  0  0
 43 82  1  0  0  0  0
 43 83  1  0  0  0  0
 44 45  1  0  0  0  0
 44 46  1  0  0  0  0
 45 84  1  0  0  0  0
 45 85  1  0  0  0  0
 45 86  1  0  0  0  0
 46 87  1  0  0  0  0
 46 88  1  0  0  0  0
 46 89  1  0  0  0  0
M  END
> <From>
www.bindingDB.org

> <BindingDB Reactant_set_id>
226248

> <Ligand InChI>
InChI=1S/C33H42ClN7O5S/c1-20(2)46-28-15-22-18-41(23-11-13-40(14-12-23)30(42)19-39(5)6)32(43)24(22)16-27(28)37-33-35-17-25(34)31(38-33)36-26-9-7-8-10-29(26)47(44,45)21(3)4/h7-10,15-17,20-21,23H,11-14,18-19H2,1-6H3,(H2,35,36,37,38)

> <Ligand InChI Key>
NMOIPXYFJUUAQM-UHFFFAOYSA-N

> <BindingDB MonomerID>
107035

> <BindingDB Ligand Name>
US8592432, 9

> <Target Name Assigned by Curator or DataSource>
ALK tyrosine kinase receptor

> <Target Source Organism According to Curator or DataSource>
Homo sapiens

> <Ki (nM)>


> <IC50 (nM)>
 6

> <Kd (nM)>


> <EC50 (nM)>


> <kon (M-1-s-1)>


> <koff (s-1)>


> <pH>


> <Temp C>


> <Curation/DataSource>
US Patent

> <Article DOI>


> <PMID>


> <PubChem AID>


> <Patent Number>
US8592432

> <Authors>
Chen, B; Jiang, T; Marsilje, TH; Michellys, P; Nguyen, TN; Pei, W; Wu, B; Gao, Z; Ge, Y; Huang, C; Li, Y; Zhu, X

> <Institution>
TBA

> <Link to Ligand in BindingDB>
http://www.bindingdb.org/bind/chemsearch/marvin/MolStructure.jsp?monomerid=107035

> <Link to Ligand-Target Pair in BindingDB>
http://www.bindingdb.org/jsp/dbsearch/PrimarySearch_ki.jsp?energyterm=kJ/mole&tag=pol&polymerid=5809&target=ALK+tyrosine+kinase+receptor&column=ki&startPg=0&Increment=50&submit=Search

> <Link to Ligand-Target Pair in BindingDB>
http://www.bindingdb.org/jsp/dbsearch/PrimarySearch_ki.jsp?energyterm=kJ/mole&tag=r21&monomerid=107035&enzyme=ALK+tyrosine+kinase+receptor&column=ki&startPg=0&Increment=50&submit=Search

> <Ligand HET ID in PDB>


> <PDB ID(s) for Ligand-Target Complex>


> <PubChem CID>
44467612

> <PubChem SID>
175444482

> <ChEBI ID of Ligand>


> <ChEMBL ID of Ligand>


> <DrugBank ID of Ligand>


> <IUPHAR_GRAC ID of Ligand>


> <KEGG ID of Ligand>


> <ZINC ID of Ligand>
ZINC96177891

> <Number of Protein Chains in Target (>1 implies a multichain complex)>
1

> <BindingDB Target Chain Sequence>
MGAIGLLWLLPLLLSTAAVGSGMGTGQRAGSPAAGPPLQPREPLSYSRLQRKSLAVDFVVPSLFRVYARDLLLPPSSSELKAGRPEARGSLALDCAPLLRLLGPAPGVSWTAGSPAPAEARTLSRVLKGGSVRKLRRAKQLVLELGEEAILEGCVGPPGEAAVGLLQFNLSELFSWWIRQGEGRLRIRLMPEKKASEVGREGRLSAAIRASQPRLLFQIFGTGHSSLESPTNMPSPSPDYFTWNLTWIMKDSFPFLSHRSRYGLECSFDFPCELEYSPPLHDLRNQSWSWRRIPSEEASQMDLLDGPGAERSKEMPRGSFLLLNTSADSKHTILSPWMRSSSEHCTLAVSVHRHLQPSGRYIAQLLPHNEAAREILLMPTPGKHGWTVLQGRIGRPDNPFRVALEYISSGNRSLSAVDFFALKNCSEGTSPGSKMALQSSFTCWNGTVLQLGQACDFHQDCAQGEDESQMCRKLPVGFYCNFEDGFCGWTQGTLSPHTPQWQVRTLKDARFQDHQDHALLLSTTDVPASESATVTSATFPAPIKSSPCELRMSWLIRGVLRGNVSLVLVENKTGKEQGRMVWHVAAYEGLSLWQWMVLPLLDVSDRFWLQMVAWWGQGSRAIVAFDNISISLDCYLTISGEDKILQNTAPKSRNLFERNPNKELKPGENSPRQTPIFDPTVHWLFTTCGASGPHGPTQAQCNNAYQNSNLSVEVGSEGPLKGIQIWKVPATDTYSISGYGAAGGKGGKNTMMRSHGVSVLGIFNLEKDDMLYILVGQQGEDACPSTNQLIQKVCIGENNVIEEEIRVNRSVHEWAGGGGGGGGATYVFKMKDGVPVPLIIAAGGGGRAYGAKTDTFHPERLENNSSVLGLNGNSGAAGGGGGWNDNTSLLWAGKSLQEGATGGHSCPQAMKKWGWETRGGFGGGGGGCSSGGGGGGYIGGNAASNNDPEMDGEDGVSFISPLGILYTPALKVMEGHGEVNIKHYLNCSHCEVDECHMDPESHKVICFCDHGTVLAEDGVSCIVSPTPEPHLPLSLILSVVTSALVAALVLAFSGIMIVYRRKHQELQAMQMELQSPEYKLSKLRTSTIMTDYNPNYCFAGKTSSISDLKEVPRKNITLIRGLGHGAFGEVYEGQVSGMPNDPSPLQVAVKTLPEVCSEQDELDFLMEALIISKFNHQNIVRCIGVSLQSLPRFILLELMAGGDLKSFLRETRPRPSQPSSLAMLDLLHVARDIACGCQYLEENHFIHRDIAARNCLLTCPGPGRVAKIGDFGMARDIYRASYYRKGGCAMLPVKWMPPEAFMEGIFTSKTDTWSFGVLLWEIFSLGYMPYPSKSNQEVLEFVTSGGRMDPPKNCPGPVYRIMTQCWQHQPEDRPNFAIILERIEYCTQDPDVINTALPIEYGPLVEEEEKVPVRPKDPEGVPPLLVSQQAKREEERSPAAPPPLPTTSSGKAAKKPTAAEISVRVPRGPAVEGGHVNMAFSQSNPPSELHKVHGSRNKPTSLWNPTYGSWFTEKPTKKNNPIAKKEPHDRGNLGLEGSCTVPPNVATGRLPGASLLLEPSSLTANMKEVPLFRLRHFPCGNVNYGYQQQGLPLEAATAPGAGHYEDTILKSKNSMNQPGP

> <PDB ID(s) of Target Chain>
2XB7,2XBA,3AOX,5FTO,5FTQ,6E0R,6EBW,6EDL,6MX8

> <UniProt (SwissProt) Recommended Name of Target Chain>
ALK tyrosine kinase receptor

> <UniProt (SwissProt) Entry Name of Target Chain>
ALK_HUMAN

> <UniProt (SwissProt) Primary ID of Target Chain>
Q9UM73

> <UniProt (SwissProt) Secondary ID(s) of Target Chain>
Q4ZFX9,Q53QQ6,Q53RZ4,Q59FI3,Q9Y4K6

> <UniProt (SwissProt) Alternative ID(s) of Target Chain>


> <UniProt (TrEMBL) Submitted Name of Target Chain>


> <UniProt (TrEMBL) Entry Name of Target Chain>


> <UniProt (TrEMBL) Primary ID of Target Chain>


> <UniProt (TrEMBL) Secondary ID(s) of Target Chain>


> <UniProt (TrEMBL) Alternative ID(s) of Target Chain>


$$$$
00100001.cdx

Vconf v2.0 Academic SN VC001-00000579
 96101  0  0  0  0  0  0  0  0999 V2000
   -1.9370    2.1360   -0.4780 N   0  0  0  0  0  0  0  0  0  0  0
   -2.8870    1.0630   -0.8520 C   0  0  0  0  0  0  0  0  0  0  0
   -1.1330    2.5470   -1.6470 C   0  0  0  0  0  0  0  0  0  0  0
   -2.6740    3.3050    0.0340 C   0  0  0  0  0  0  0  0  0  0  0
   -2.2130   -0.2430   -0.9400 C   0  0  0  0  0  0  0  0  0  0  0
   -1.7000   -0.8930    0.1490 N   0  0  0  0  0  0  0  0  0  0  0
   -2.1380   -0.7640   -2.0760 O   0  0  0  0  0  0  0  0  0  0  0
   -1.0530   -2.1660    0.0220 C   0  0  0  0  0  0  0  0  0  0  0
    0.3820   -2.0840    0.5670 C   0  0  0  0  0  0  0  0  0  0  0
    0.3550   -1.5750    2.0200 C   0  0  0  0  0  0  0  0  0  0  0
   -0.3790   -0.2220    2.0750 C   0  0  0  0  0  0  0  0  0  0  0
   -1.7860   -0.3690    1.4790 C   0  0  0  0  0  0  0  0  0  0  0
    1.6600   -1.4780    2.5880 N   0  0  0  0  0  0  0  0  0  0  0
    2.6620   -0.6900    2.1300 C   0  0  0  0  0  0  0  0  0  0  0
    3.7360   -0.7940    2.9930 C   0  0  0  0  0  0  0  0  0  0  0
    3.3880   -1.6830    4.0000 C   0  0  0  0  0  0  0  0  0  0  0
    2.0320   -2.1870    3.7730 C   0  0  0  0  0  0  0  0  0  0  0
    4.9610   -0.1130    3.0140 C   0  0  0  0  0  0  0  0  0  0  0
    5.8360   -0.3140    4.1080 C   0  0  0  0  0  0  0  0  0  0  0
    5.4990   -1.2510    5.1180 C   0  0  0  0  0  0  0  0  0  0  0
    4.2660   -1.9370    5.0650 C   0  0  0  0  0  0  0  0  0  0  0
    2.6040    0.0610    1.1310 O   0  0  0  0  0  0  0  0  0  0  0
    6.2880   -1.4510    6.2100 O   0  0  0  0  0  0  0  0  0  0  0
    7.6020   -2.0040    6.0760 C   0  0  0  0  0  0  0  0  0  0  0
    8.2960   -1.8990    7.4400 C   0  0  0  0  0  0  0  0  0  0  0
    7.5370   -3.4750    5.6410 C   0  0  0  0  0  0  0  0  0  0  0
    6.9370    0.4730    4.2360 N   0  0  0  0  0  0  0  0  0  0  0
    6.8560    1.8230    4.3340 C   0  0  0  0  0  0  0  0  0  0  0
    7.9620    2.6000    4.3590 N   0  0  0  0  0  0  0  0  0  0  0
    7.8730    3.9540    4.3800 C   0  0  0  0  0  0  0  0  0  0  0
    6.6190    4.5930    4.3670 C   0  0  0  0  0  0  0  0  0  0  0
    5.4740    3.7730    4.3900 C   0  0  0  0  0  0  0  0  0  0  0
    5.6520    2.4340    4.3640 N   0  0  0  0  0  0  0  0  0  0  0
    6.5230    6.2830    4.3330 Cl  0  0  0  0  0  0  0  0  0  0  0
    4.2080    4.2720    4.3110 N   0  0  0  0  0  0  0  0  0  0  0
    3.0340    3.5870    4.4780 C   0  0  0  0  0  0  0  0  0  0  0
    2.9270    2.4180    5.2710 C   0  0  0  0  0  0  0  0  0  0  0
    1.6980    1.7620    5.4350 C   0  0  0  0  0  0  0  0  0  0  0
    0.5500    2.2640    4.8060 C   0  0  0  0  0  0  0  0  0  0  0
    0.6410    3.4110    4.0040 C   0  0  0  0  0  0  0  0  0  0  0
    1.8730    4.0730    3.8340 C   0  0  0  0  0  0  0  0  0  0  0
    1.9470    5.3800    2.6840 S   0  0  0  0  0  0  0  0  0  0  0
    2.5580    4.7120    1.1160 C   0  0  0  0  0  0  0  0  0  0  0
    4.0470    4.3330    1.1910 C   0  0  0  0  0  0  0  0  0  0  0
    4.5460    3.8830   -0.1880 C   0  0  0  0  0  0  0  0  0  0  0
    3.7420    2.6620   -0.6590 C   0  0  0  0  0  0  0  0  0  0  0
    2.2380    2.9820   -0.6970 C   0  0  0  0  0  0  0  0  0  0  0
    1.7470    3.4800    0.6730 C   0  0  0  0  0  0  0  0  0  0  0
    0.4630    5.8200    2.3170 O   0  0  0  0  0  0  0  0  0  0  0
    3.0190    6.4710    3.1220 O   0  0  0  0  0  0  0  0  0  0  0
   -3.3520    1.3020   -1.8100 H   0  0  0  0  0  0  0  0  0  0  0
   -3.6820    0.9820   -0.1090 H   0  0  0  0  0  0  0  0  0  0  0
   -0.4580    3.3550   -1.3670 H   0  0  0  0  0  0  0  0  0  0  0
   -0.5390    1.7060   -2.0050 H   0  0  0  0  0  0  0  0  0  0  0
   -1.7810    2.8940   -2.4530 H   0  0  0  0  0  0  0  0  0  0  0
   -1.9720    4.0950    0.3060 H   0  0  0  0  0  0  0  0  0  0  0
   -3.3630    3.6830   -0.7220 H   0  0  0  0  0  0  0  0  0  0  0
   -3.2370    3.0230    0.9240 H   0  0  0  0  0  0  0  0  0  0  0
   -1.0060   -2.5120   -1.0120 H   0  0  0  0  0  0  0  0  0  0  0
   -1.6090   -2.9040    0.6010 H   0  0  0  0  0  0  0  0  0  0  0
    0.8390   -3.0740    0.5350 H   0  0  0  0  0  0  0  0  0  0  0
    0.9600   -1.4050   -0.0600 H   0  0  0  0  0  0  0  0  0  0  0
   -0.2230   -2.2890    2.6100 H   0  0  0  0  0  0  0  0  0  0  0
    0.1680    0.5300    1.5050 H   0  0  0  0  0  0  0  0  0  0  0
   -0.4600    0.1040    3.1110 H   0  0  0  0  0  0  0  0  0  0  0
   -2.2750    0.6030    1.5280 H   0  0  0  0  0  0  0  0  0  0  0
   -2.3580   -1.0640    2.0950 H   0  0  0  0  0  0  0  0  0  0  0
    1.3770   -1.9220    4.6050 H   0  0  0  0  0  0  0  0  0  0  0
    2.0340   -3.2650    3.6070 H   0  0  0  0  0  0  0  0  0  0  0
    5.1810    0.5690    2.2860 H   0  0  0  0  0  0  0  0  0  0  0
    4.0030   -2.5830    5.8090 H   0  0  0  0  0  0  0  0  0  0  0
    8.1910   -1.4420    5.3510 H   0  0  0  0  0  0  0  0  0  0  0
    9.3080   -2.2980    7.3710 H   0  0  0  0  0  0  0  0  0  0  0
    8.3430   -0.8530    7.7440 H   0  0  0  0  0  0  0  0  0  0  0
    7.7340   -2.4640    8.1840 H   0  0  0  0  0  0  0  0  0  0  0
    8.5430   -3.8920    5.6050 H   0  0  0  0  0  0  0  0  0  0  0
    6.9350   -4.0420    6.3520 H   0  0  0  0  0  0  0  0  0  0  0
    7.0860   -3.5480    4.6510 H   0  0  0  0  0  0  0  0  0  0  0
    7.8110    0.0580    4.2590 H   0  0  0  0  0  0  0  0  0  0  0
    8.7320    4.5060    4.3890 H   0  0  0  0  0  0  0  0  0  0  0
    4.1390    5.2010    4.0450 H   0  0  0  0  0  0  0  0  0  0  0
    3.7380    2.0490    5.7650 H   0  0  0  0  0  0  0  0  0  0  0
    1.6390    0.9240    6.0150 H   0  0  0  0  0  0  0  0  0  0  0
   -0.3450    1.7890    4.9220 H   0  0  0  0  0  0  0  0  0  0  0
   -0.1910    3.7510    3.5200 H   0  0  0  0  0  0  0  0  0  0  0
    2.4410    5.4940    0.3650 H   0  0  0  0  0  0  0  0  0  0  0
    4.1810    3.5080    1.8900 H   0  0  0  0  0  0  0  0  0  0  0
    4.6300    5.1910    1.5270 H   0  0  0  0  0  0  0  0  0  0  0
    4.4310    4.6970   -0.9040 H   0  0  0  0  0  0  0  0  0  0  0
    5.6000    3.6140   -0.1200 H   0  0  0  0  0  0  0  0  0  0  0
    3.9200    1.8330    0.0250 H   0  0  0  0  0  0  0  0  0  0  0
    4.0740    2.3730   -1.6560 H   0  0  0  0  0  0  0  0  0  0  0
    2.0520    3.7500   -1.4490 H   0  0  0  0  0  0  0  0  0  0  0
    1.6900    2.0800   -0.9680 H   0  0  0  0  0  0  0  0  0  0  0
    1.8660    2.6770    1.4020 H   0  0  0  0  0  0  0  0  0  0  0
    0.6920    3.7450    0.6070 H   0  0  0  0  0  0  0  0  0  0  0
  1  2  1  0  0  0  0
  1  3  1  0  0  0  0
  1  4  1  0  0  0  0
  2  5  1  0  0  0  0
  2 51  1  0  0  0  0
  2 52  1  0  0  0  0
  3 53  1  0  0  0  0
  3 54  1  0  0  0  0
  3 55  1  0  0  0  0
  4 56  1  0  0  0  0
  4 57  1  0  0  0  0
  4 58  1  0  0  0  0
  5  6  1  0  0  0  0
  5  7  2  0  0  0  0
  6  8  1  0  0  0  0
  6 12  1  0  0  0  0
  8  9  1  0  0  0  0
  8 59  1  0  0  0  0
  8 60  1  0  0  0  0
  9 10  1  0  0  0  0
  9 61  1  0  0  0  0
  9 62  1  0  0  0  0
 10 11  1  0  0  0  0
 10 13  1  0  0  0  0
 10 63  1  0  0  0  0
 11 12  1  0  0  0  0
 11 64  1  0  0  0  0
 11 65  1  0  0  0  0
 12 66  1  0  0  0  0
 12 67  1  0  0  0  0
 13 14  1  0  0  0  0
 13 17  1  0  0  0  0
 14 15  1  0  0  0  0
 14 22  2  0  0  0  0
 15 16  2  0  0  0  0
 15 18  1  0  0  0  0
 16 17  1  0  0  0  0
 16 21  1  0  0  0  0
 17 68  1  0  0  0  0
 17 69  1  0  0  0  0
 18 19  2  0  0  0  0
 18 70  1  0  0  0  0
 19 20  1  0  0  0  0
 19 27  1  0  0  0  0
 20 21  2  0  0  0  0
 20 23  1  0  0  0  0
 21 71  1  0  0  0  0
 23 24  1  0  0  0  0
 24 25  1  0  0  0  0
 24 26  1  0  0  0  0
 24 72  1  0  0  0  0
 25 73  1  0  0  0  0
 25 74  1  0  0  0  0
 25 75  1  0  0  0  0
 26 76  1  0  0  0  0
 26 77  1  0  0  0  0
 26 78  1  0  0  0  0
 27 28  1  0  0  0  0
 27 79  1  0  0  0  0
 28 29  2  0  0  0  0
 28 33  1  0  0  0  0
 29 30  1  0  0  0  0
 30 31  2  0  0  0  0
 30 80  1  0  0  0  0
 31 32  1  0  0  0  0
 31 34  1  0  0  0  0
 32 33  2  0  0  0  0
 32 35  1  0  0  0  0
 35 36  1  0  0  0  0
 35 81  1  0  0  0  0
 36 37  2  0  0  0  0
 36 41  1  0  0  0  0
 37 38  1  0  0  0  0
 37 82  1  0  0  0  0
 38 39  2  0  0  0  0
 38 83  1  0  0  0  0
 39 40  1  0  0  0  0
 39 84  1  0  0  0  0
 40 41  2  0  0  0  0
 40 85  1  0  0  0  0
 41 42  1  0  0  0  0
 42 43  1  0  0  0  0
 42 49  2  0  0  0  0
 42 50  2  0  0  0  0
 43 44  1  0  0  0  0
 43 48  1  0  0  0  0
 43 86  1  0  0  0  0
 44 45  1  0  0  0  0
 44 87  1  0  0  0  0
 44 88  1  0  0  0  0
 45 46  1  0  0  0  0
 45 89  1  0  0  0  0
 45 90  1  0  0  0  0
 46 47  1  0  0  0  0
 46 91  1  0  0  0  0
 46 92  1  0  0  0  0
 47 48  1  0  0  0  0
 47 93  1  0  0  0  0
 47 94  1  0  0  0  0
 48 95  1  0  0  0  0
 48 96  1  0  0  0  0
M  END
> <From>
www.bindingDB.org

> <BindingDB Reactant_set_id>
226249

> <Ligand InChI>
InChI=1S/C36H46ClN7O5S/c1-23(2)49-31-18-24-21-44(25-14-16-43(17-15-25)33(45)22-42(3)4)35(46)27(24)19-30(31)40-36-38-20-28(37)34(41-36)39-29-12-8-9-13-32(29)50(47,48)26-10-6-5-7-11-26/h8-9,12-13,18-20,23,25-26H,5-7,10-11,14-17,21-22H2,1-4H3,(H2,38,39,40,41)

> <Ligand InChI Key>
WOFWLHOOEQSCKY-UHFFFAOYSA-N

> <BindingDB MonomerID>
107036

> <BindingDB Ligand Name>
US8592432, 10

> <Target Name Assigned by Curator or DataSource>
ALK tyrosine kinase receptor

> <Target Source Organism According to Curator or DataSource>
Homo sapiens

> <Ki (nM)>


> <IC50 (nM)>
 33

> <Kd (nM)>


> <EC50 (nM)>


> <kon (M-1-s-1)>


> <koff (s-1)>


> <pH>


> <Temp C>


> <Curation/DataSource>
US Patent

> <Article DOI>


> <PMID>


> <PubChem AID>


> <Patent Number>
US8592432

> <Authors>
Chen, B; Jiang, T; Marsilje, TH; Michellys, P; Nguyen, TN; Pei, W; Wu, B; Gao, Z; Ge, Y; Huang, C; Li, Y; Zhu, X

> <Institution>
TBA

> <Link to Ligand in BindingDB>
http://www.bindingdb.org/bind/chemsearch/marvin/MolStructure.jsp?monomerid=107036

> <Link to Ligand-Target Pair in BindingDB>
http://www.bindingdb.org/jsp/dbsearch/PrimarySearch_ki.jsp?energyterm=kJ/mole&tag=pol&polymerid=5809&target=ALK+tyrosine+kinase+receptor&column=ki&startPg=0&Increment=50&submit=Search

> <Link to Ligand-Target Pair in BindingDB>
http://www.bindingdb.org/jsp/dbsearch/PrimarySearch_ki.jsp?energyterm=kJ/mole&tag=r21&monomerid=107036&enzyme=ALK+tyrosine+kinase+receptor&column=ki&startPg=0&Increment=50&submit=Search

> <Ligand HET ID in PDB>


> <PDB ID(s) for Ligand-Target Complex>


> <PubChem CID>
44467613

> <PubChem SID>
175444483

> <ChEBI ID of Ligand>


> <ChEMBL ID of Ligand>


> <DrugBank ID of Ligand>


> <IUPHAR_GRAC ID of Ligand>


> <KEGG ID of Ligand>


> <ZINC ID of Ligand>
ZINC96177892

> <Number of Protein Chains in Target (>1 implies a multichain complex)>
1

> <BindingDB Target Chain Sequence>
MGAIGLLWLLPLLLSTAAVGSGMGTGQRAGSPAAGPPLQPREPLSYSRLQRKSLAVDFVVPSLFRVYARDLLLPPSSSELKAGRPEARGSLALDCAPLLRLLGPAPGVSWTAGSPAPAEARTLSRVLKGGSVRKLRRAKQLVLELGEEAILEGCVGPPGEAAVGLLQFNLSELFSWWIRQGEGRLRIRLMPEKKASEVGREGRLSAAIRASQPRLLFQIFGTGHSSLESPTNMPSPSPDYFTWNLTWIMKDSFPFLSHRSRYGLECSFDFPCELEYSPPLHDLRNQSWSWRRIPSEEASQMDLLDGPGAERSKEMPRGSFLLLNTSADSKHTILSPWMRSSSEHCTLAVSVHRHLQPSGRYIAQLLPHNEAAREILLMPTPGKHGWTVLQGRIGRPDNPFRVALEYISSGNRSLSAVDFFALKNCSEGTSPGSKMALQSSFTCWNGTVLQLGQACDFHQDCAQGEDESQMCRKLPVGFYCNFEDGFCGWTQGTLSPHTPQWQVRTLKDARFQDHQDHALLLSTTDVPASESATVTSATFPAPIKSSPCELRMSWLIRGVLRGNVSLVLVENKTGKEQGRMVWHVAAYEGLSLWQWMVLPLLDVSDRFWLQMVAWWGQGSRAIVAFDNISISLDCYLTISGEDKILQNTAPKSRNLFERNPNKELKPGENSPRQTPIFDPTVHWLFTTCGASGPHGPTQAQCNNAYQNSNLSVEVGSEGPLKGIQIWKVPATDTYSISGYGAAGGKGGKNTMMRSHGVSVLGIFNLEKDDMLYILVGQQGEDACPSTNQLIQKVCIGENNVIEEEIRVNRSVHEWAGGGGGGGGATYVFKMKDGVPVPLIIAAGGGGRAYGAKTDTFHPERLENNSSVLGLNGNSGAAGGGGGWNDNTSLLWAGKSLQEGATGGHSCPQAMKKWGWETRGGFGGGGGGCSSGGGGGGYIGGNAASNNDPEMDGEDGVSFISPLGILYTPALKVMEGHGEVNIKHYLNCSHCEVDECHMDPESHKVICFCDHGTVLAEDGVSCIVSPTPEPHLPLSLILSVVTSALVAALVLAFSGIMIVYRRKHQELQAMQMELQSPEYKLSKLRTSTIMTDYNPNYCFAGKTSSISDLKEVPRKNITLIRGLGHGAFGEVYEGQVSGMPNDPSPLQVAVKTLPEVCSEQDELDFLMEALIISKFNHQNIVRCIGVSLQSLPRFILLELMAGGDLKSFLRETRPRPSQPSSLAMLDLLHVARDIACGCQYLEENHFIHRDIAARNCLLTCPGPGRVAKIGDFGMARDIYRASYYRKGGCAMLPVKWMPPEAFMEGIFTSKTDTWSFGVLLWEIFSLGYMPYPSKSNQEVLEFVTSGGRMDPPKNCPGPVYRIMTQCWQHQPEDRPNFAIILERIEYCTQDPDVINTALPIEYGPLVEEEEKVPVRPKDPEGVPPLLVSQQAKREEERSPAAPPPLPTTSSGKAAKKPTAAEISVRVPRGPAVEGGHVNMAFSQSNPPSELHKVHGSRNKPTSLWNPTYGSWFTEKPTKKNNPIAKKEPHDRGNLGLEGSCTVPPNVATGRLPGASLLLEPSSLTANMKEVPLFRLRHFPCGNVNYGYQQQGLPLEAATAPGAGHYEDTILKSKNSMNQPGP

> <PDB ID(s) of Target Chain>
2XB7,2XBA,3AOX,5FTO,5FTQ,6E0R,6EBW,6EDL,6MX8

> <UniProt (SwissProt) Recommended Name of Target Chain>
ALK tyrosine kinase receptor

> <UniProt (SwissProt) Entry Name of Target Chain>
ALK_HUMAN

> <UniProt (SwissProt) Primary ID of Target Chain>
Q9UM73

> <UniProt (SwissProt) Secondary ID(s) of Target Chain>
Q4ZFX9,Q53QQ6,Q53RZ4,Q59FI3,Q9Y4K6

> <UniProt (SwissProt) Alternative ID(s) of Target Chain>


> <UniProt (TrEMBL) Submitted Name of Target Chain>


> <UniProt (TrEMBL) Entry Name of Target Chain>


> <UniProt (TrEMBL) Primary ID of Target Chain>


> <UniProt (TrEMBL) Secondary ID(s) of Target Chain>


> <UniProt (TrEMBL) Alternative ID(s) of Target Chain>


$$$$
00101001.cdx

Vconf v2.0 Academic SN VC001-00000579
 90 95  0  0  0  0  0  0  0  0999 V2000
   -1.6410   -0.5380   -3.8670 C   0  0  0  0  0  0  0  0  0  0  0
   -1.4180    0.2500   -2.6410 N   0  0  0  0  0  0  0  0  0  0  0
   -2.5660    1.1610   -2.4210 C   0  0  0  0  0  0  0  0  0  0  0
   -0.1430    0.9870   -2.7560 C   0  0  0  0  0  0  0  0  0  0  0
   -2.5130    1.8100   -1.1010 C   0  0  0  0  0  0  0  0  0  0  0
   -2.5270    1.1100    0.0740 N   0  0  0  0  0  0  0  0  0  0  0
   -2.4100    3.0570   -1.0870 O   0  0  0  0  0  0  0  0  0  0  0
   -2.6700   -0.3130    0.1370 C   0  0  0  0  0  0  0  0  0  0  0
   -1.3940   -0.9180    0.7410 C   0  0  0  0  0  0  0  0  0  0  0
   -1.1270   -0.2950    2.1240 C   0  0  0  0  0  0  0  0  0  0  0
   -1.0630    1.2380    1.9920 C   0  0  0  0  0  0  0  0  0  0  0
   -2.3490    1.7640    1.3350 C   0  0  0  0  0  0  0  0  0  0  0
    2.1260   -2.1980    5.3070 C   0  0  0  0  0  0  0  0  0  0  0
    3.5280   -2.3520    5.2940 C   0  0  0  0  0  0  0  0  0  0  0
    4.2760   -1.9900    4.1450 C   0  0  0  0  0  0  0  0  0  0  0
    3.6230   -1.4800    3.0040 C   0  0  0  0  0  0  0  0  0  0  0
    2.2320   -1.3030    3.0440 C   0  0  0  0  0  0  0  0  0  0  0
    1.5020   -1.6600    4.1720 C   0  0  0  0  0  0  0  0  0  0  0
    1.3500   -0.7380    2.0270 C   0  0  0  0  0  0  0  0  0  0  0
    0.0830   -0.7950    2.6900 N   0  0  0  0  0  0  0  0  0  0  0
    0.1780   -1.3470    3.9250 C   0  0  0  0  0  0  0  0  0  0  0
   -0.7650   -1.5040    4.7310 O   0  0  0  0  0  0  0  0  0  0  0
    5.6290   -2.1350    4.1620 O   0  0  0  0  0  0  0  0  0  0  0
    6.4740   -0.9830    4.2700 C   0  0  0  0  0  0  0  0  0  0  0
    7.7830   -1.4330    4.9320 C   0  0  0  0  0  0  0  0  0  0  0
    6.7770   -0.3720    2.8930 C   0  0  0  0  0  0  0  0  0  0  0
    4.1570   -2.7780    6.4150 N   0  0  0  0  0  0  0  0  0  0  0
    4.7570   -1.9240    7.2770 C   0  0  0  0  0  0  0  0  0  0  0
    5.4180   -2.3920    8.3590 N   0  0  0  0  0  0  0  0  0  0  0
    6.0440   -1.5540    9.2200 C   0  0  0  0  0  0  0  0  0  0  0
    6.0250   -0.1650    9.0090 C   0  0  0  0  0  0  0  0  0  0  0
    5.3200    0.3200    7.8860 C   0  0  0  0  0  0  0  0  0  0  0
    4.7240   -0.5860    7.0780 N   0  0  0  0  0  0  0  0  0  0  0
    6.8250    0.8510   10.1040 Cl  0  0  0  0  0  0  0  0  0  0  0
    5.2660    1.6580    7.6170 N   0  0  0  0  0  0  0  0  0  0  0
    4.5960    2.3460    6.6370 C   0  0  0  0  0  0  0  0  0  0  0
    3.6770    1.7660    5.7250 C   0  0  0  0  0  0  0  0  0  0  0
    3.0140    2.5430    4.7620 C   0  0  0  0  0  0  0  0  0  0  0
    3.2500    3.9210    4.6920 C   0  0  0  0  0  0  0  0  0  0  0
    4.1520    4.5160    5.5860 C   0  0  0  0  0  0  0  0  0  0  0
    4.8260    3.7420    6.5510 C   0  0  0  0  0  0  0  0  0  0  0
    5.9340    4.5820    7.6030 S   0  0  0  0  0  0  0  0  0  0  0
    4.9570    5.1310    9.0160 C   0  0  0  0  0  0  0  0  0  0  0
    7.0580    3.6270    8.2020 O   0  0  0  0  0  0  0  0  0  0  0
    6.3390    5.9650    6.9310 O   0  0  0  0  0  0  0  0  0  0  0
    4.5030    4.0760   10.0320 C   0  0  0  0  0  0  0  0  0  0  0
    5.5050    4.6330   11.0460 C   0  0  0  0  0  0  0  0  0  0  0
    5.8040    5.8000   10.1020 C   0  0  0  0  0  0  0  0  0  0  0
   -0.8150   -1.2350   -4.0120 H   0  0  0  0  0  0  0  0  0  0  0
   -2.5650   -1.1100   -3.7740 H   0  0  0  0  0  0  0  0  0  0  0
   -1.7130    0.1200   -4.7350 H   0  0  0  0  0  0  0  0  0  0  0
   -3.5000    0.6000   -2.4820 H   0  0  0  0  0  0  0  0  0  0  0
   -2.5790    1.9240   -3.2020 H   0  0  0  0  0  0  0  0  0  0  0
    0.0680    1.5200   -1.8280 H   0  0  0  0  0  0  0  0  0  0  0
    0.6710    0.2850   -2.9400 H   0  0  0  0  0  0  0  0  0  0  0
   -0.1900    1.7040   -3.5770 H   0  0  0  0  0  0  0  0  0  0  0
   -2.8440   -0.7710   -0.8360 H   0  0  0  0  0  0  0  0  0  0  0
   -3.5190   -0.5570    0.7780 H   0  0  0  0  0  0  0  0  0  0  0
   -1.5150   -1.9970    0.8420 H   0  0  0  0  0  0  0  0  0  0  0
   -0.5590   -0.7120    0.0690 H   0  0  0  0  0  0  0  0  0  0  0
   -1.9740   -0.5390    2.7710 H   0  0  0  0  0  0  0  0  0  0  0
   -0.2100    1.5240    1.3760 H   0  0  0  0  0  0  0  0  0  0  0
   -0.9540    1.6840    2.9820 H   0  0  0  0  0  0  0  0  0  0  0
   -2.2680    2.8480    1.2400 H   0  0  0  0  0  0  0  0  0  0  0
   -3.2000    1.5400    1.9800 H   0  0  0  0  0  0  0  0  0  0  0
    1.5810   -2.4390    6.1360 H   0  0  0  0  0  0  0  0  0  0  0
    4.1490   -1.2250    2.1690 H   0  0  0  0  0  0  0  0  0  0  0
    1.6340    0.2890    1.7970 H   0  0  0  0  0  0  0  0  0  0  0
    1.3550   -1.3520    1.1250 H   0  0  0  0  0  0  0  0  0  0  0
    6.0200   -0.2190    4.9050 H   0  0  0  0  0  0  0  0  0  0  0
    8.4490   -0.5790    5.0520 H   0  0  0  0  0  0  0  0  0  0  0
    7.5650   -1.8580    5.9130 H   0  0  0  0  0  0  0  0  0  0  0
    8.2680   -2.1890    4.3140 H   0  0  0  0  0  0  0  0  0  0  0
    7.5620    0.3780    2.9880 H   0  0  0  0  0  0  0  0  0  0  0
    7.1050   -1.1550    2.2090 H   0  0  0  0  0  0  0  0  0  0  0
    5.8850    0.1080    2.4950 H   0  0  0  0  0  0  0  0  0  0  0
    4.1900   -3.7280    6.6020 H   0  0  0  0  0  0  0  0  0  0  0
    6.5340   -1.9500   10.0240 H   0  0  0  0  0  0  0  0  0  0  0
    5.7930    2.2040    8.2180 H   0  0  0  0  0  0  0  0  0  0  0
    3.4540    0.7760    5.7530 H   0  0  0  0  0  0  0  0  0  0  0
    2.3550    2.1020    4.1180 H   0  0  0  0  0  0  0  0  0  0  0
    2.7680    4.4920    3.9960 H   0  0  0  0  0  0  0  0  0  0  0
    4.3190    5.5210    5.5330 H   0  0  0  0  0  0  0  0  0  0  0
    4.1560    5.7580    8.6230 H   0  0  0  0  0  0  0  0  0  0  0
    3.4630    4.1820   10.3440 H   0  0  0  0  0  0  0  0  0  0  0
    4.6540    3.0340    9.7530 H   0  0  0  0  0  0  0  0  0  0  0
    5.0910    4.9080   12.0160 H   0  0  0  0  0  0  0  0  0  0  0
    6.3630    3.9820   11.2240 H   0  0  0  0  0  0  0  0  0  0  0
    6.8570    5.9380    9.8530 H   0  0  0  0  0  0  0  0  0  0  0
    5.4150    6.7610   10.4380 H   0  0  0  0  0  0  0  0  0  0  0
  1  2  1  0  0  0  0
  1 49  1  0  0  0  0
  1 50  1  0  0  0  0
  1 51  1  0  0  0  0
  2  3  1  0  0  0  0
  2  4  1  0  0  0  0
  3  5  1  0  0  0  0
  3 52  1  0  0  0  0
  3 53  1  0  0  0  0
  4 54  1  0  0  0  0
  4 55  1  0  0  0  0
  4 56  1  0  0  0  0
  5  6  1  0  0  0  0
  5  7  2  0  0  0  0
  6  8  1  0  0  0  0
  6 12  1  0  0  0  0
  8  9  1  0  0  0  0
  8 57  1  0  0  0  0
  8 58  1  0  0  0  0
  9 10  1  0  0  0  0
  9 59  1  0  0  0  0
  9 60  1  0  0  0  0
 10 11  1  0  0  0  0
 10 20  1  0  0  0  0
 10 61  1  0  0  0  0
 11 12  1  0  0  0  0
 11 62  1  0  0  0  0
 11 63  1  0  0  0  0
 12 64  1  0  0  0  0
 12 65  1  0  0  0  0
 13 14  2  0  0  0  0
 13 18  1  0  0  0  0
 13 66  1  0  0  0  0
 14 15  1  0  0  0  0
 14 27  1  0  0  0  0
 15 16  2  0  0  0  0
 15 23  1  0  0  0  0
 16 17  1  0  0  0  0
 16 67  1  0  0  0  0
 17 18  2  0  0  0  0
 17 19  1  0  0  0  0
 18 21  1  0  0  0  0
 19 20  1  0  0  0  0
 19 68  1  0  0  0  0
 19 69  1  0  0  0  0
 20 21  1  0  0  0  0
 21 22  2  0  0  0  0
 23 24  1  0  0  0  0
 24 25  1  0  0  0  0
 24 26  1  0  0  0  0
 24 70  1  0  0  0  0
 25 71  1  0  0  0  0
 25 72  1  0  0  0  0
 25 73  1  0  0  0  0
 26 74  1  0  0  0  0
 26 75  1  0  0  0  0
 26 76  1  0  0  0  0
 27 28  1  0  0  0  0
 27 77  1  0  0  0  0
 28 29  2  0  0  0  0
 28 33  1  0  0  0  0
 29 30  1  0  0  0  0
 30 31  2  0  0  0  0
 30 78  1  0  0  0  0
 31 32  1  0  0  0  0
 31 34  1  0  0  0  0
 32 33  2  0  0  0  0
 32 35  1  0  0  0  0
 35 36  1  0  0  0  0
 35 79  1  0  0  0  0
 36 37  2  0  0  0  0
 36 41  1  0  0  0  0
 37 38  1  0  0  0  0
 37 80  1  0  0  0  0
 38 39  2  0  0  0  0
 38 81  1  0  0  0  0
 39 40  1  0  0  0  0
 39 82  1  0  0  0  0
 40 41  2  0  0  0  0
 40 83  1  0  0  0  0
 41 42  1  0  0  0  0
 42 43  1  0  0  0  0
 42 44  2  0  0  0  0
 42 45  2  0  0  0  0
 43 46  1  0  0  0  0
 43 48  1  0  0  0  0
 43 84  1  0  0  0  0
 46 47  1  0  0  0  0
 46 85  1  0  0  0  0
 46 86  1  0  0  0  0
 47 48  1  0  0  0  0
 47 87  1  0  0  0  0
 47 88  1  0  0  0  0
 48 89  1  0  0  0  0
 48 90  1  0  0  0  0
M  END
> <From>
www.bindingDB.org

> <BindingDB Reactant_set_id>
226250

> <Ligand InChI>
InChI=1S/C34H42ClN7O5S/c1-21(2)47-29-16-22-19-42(23-12-14-41(15-13-23)31(43)20-40(3)4)33(44)25(22)17-28(29)38-34-36-18-26(35)32(39-34)37-27-10-5-6-11-30(27)48(45,46)24-8-7-9-24/h5-6,10-11,16-18,21,23-24H,7-9,12-15,19-20H2,1-4H3,(H2,36,37,38,39)

> <Ligand InChI Key>
VRSBBOUWXNVSKO-UHFFFAOYSA-N

> <BindingDB MonomerID>
107037

> <BindingDB Ligand Name>
US8592432, 11

> <Target Name Assigned by Curator or DataSource>
ALK tyrosine kinase receptor

> <Target Source Organism According to Curator or DataSource>
Homo sapiens

> <Ki (nM)>


> <IC50 (nM)>
 2

> <Kd (nM)>


> <EC50 (nM)>


> <kon (M-1-s-1)>


> <koff (s-1)>


> <pH>


> <Temp C>


> <Curation/DataSource>
US Patent

> <Article DOI>


> <PMID>


> <PubChem AID>


> <Patent Number>
US8592432

> <Authors>
Chen, B; Jiang, T; Marsilje, TH; Michellys, P; Nguyen, TN; Pei, W; Wu, B; Gao, Z; Ge, Y; Huang, C; Li, Y; Zhu, X

> <Institution>
TBA

> <Link to Ligand in BindingDB>
http://www.bindingdb.org/bind/chemsearch/marvin/MolStructure.jsp?monomerid=107037

> <Link to Ligand-Target Pair in BindingDB>
http://www.bindingdb.org/jsp/dbsearch/PrimarySearch_ki.jsp?energyterm=kJ/mole&tag=pol&polymerid=5809&target=ALK+tyrosine+kinase+receptor&column=ki&startPg=0&Increment=50&submit=Search

> <Link to Ligand-Target Pair in BindingDB>
http://www.bindingdb.org/jsp/dbsearch/PrimarySearch_ki.jsp?energyterm=kJ/mole&tag=r21&monomerid=107037&enzyme=ALK+tyrosine+kinase+receptor&column=ki&startPg=0&Increment=50&submit=Search

> <Ligand HET ID in PDB>


> <PDB ID(s) for Ligand-Target Complex>


> <PubChem CID>
44236796

> <PubChem SID>
175444484

> <ChEBI ID of Ligand>


> <ChEMBL ID of Ligand>


> <DrugBank ID of Ligand>


> <IUPHAR_GRAC ID of Ligand>


> <KEGG ID of Ligand>


> <ZINC ID of Ligand>
ZINC96177893

> <Number of Protein Chains in Target (>1 implies a multichain complex)>
1

> <BindingDB Target Chain Sequence>
MGAIGLLWLLPLLLSTAAVGSGMGTGQRAGSPAAGPPLQPREPLSYSRLQRKSLAVDFVVPSLFRVYARDLLLPPSSSELKAGRPEARGSLALDCAPLLRLLGPAPGVSWTAGSPAPAEARTLSRVLKGGSVRKLRRAKQLVLELGEEAILEGCVGPPGEAAVGLLQFNLSELFSWWIRQGEGRLRIRLMPEKKASEVGREGRLSAAIRASQPRLLFQIFGTGHSSLESPTNMPSPSPDYFTWNLTWIMKDSFPFLSHRSRYGLECSFDFPCELEYSPPLHDLRNQSWSWRRIPSEEASQMDLLDGPGAERSKEMPRGSFLLLNTSADSKHTILSPWMRSSSEHCTLAVSVHRHLQPSGRYIAQLLPHNEAAREILLMPTPGKHGWTVLQGRIGRPDNPFRVALEYISSGNRSLSAVDFFALKNCSEGTSPGSKMALQSSFTCWNGTVLQLGQACDFHQDCAQGEDESQMCRKLPVGFYCNFEDGFCGWTQGTLSPHTPQWQVRTLKDARFQDHQDHALLLSTTDVPASESATVTSATFPAPIKSSPCELRMSWLIRGVLRGNVSLVLVENKTGKEQGRMVWHVAAYEGLSLWQWMVLPLLDVSDRFWLQMVAWWGQGSRAIVAFDNISISLDCYLTISGEDKILQNTAPKSRNLFERNPNKELKPGENSPRQTPIFDPTVHWLFTTCGASGPHGPTQAQCNNAYQNSNLSVEVGSEGPLKGIQIWKVPATDTYSISGYGAAGGKGGKNTMMRSHGVSVLGIFNLEKDDMLYILVGQQGEDACPSTNQLIQKVCIGENNVIEEEIRVNRSVHEWAGGGGGGGGATYVFKMKDGVPVPLIIAAGGGGRAYGAKTDTFHPERLENNSSVLGLNGNSGAAGGGGGWNDNTSLLWAGKSLQEGATGGHSCPQAMKKWGWETRGGFGGGGGGCSSGGGGGGYIGGNAASNNDPEMDGEDGVSFISPLGILYTPALKVMEGHGEVNIKHYLNCSHCEVDECHMDPESHKVICFCDHGTVLAEDGVSCIVSPTPEPHLPLSLILSVVTSALVAALVLAFSGIMIVYRRKHQELQAMQMELQSPEYKLSKLRTSTIMTDYNPNYCFAGKTSSISDLKEVPRKNITLIRGLGHGAFGEVYEGQVSGMPNDPSPLQVAVKTLPEVCSEQDELDFLMEALIISKFNHQNIVRCIGVSLQSLPRFILLELMAGGDLKSFLRETRPRPSQPSSLAMLDLLHVARDIACGCQYLEENHFIHRDIAARNCLLTCPGPGRVAKIGDFGMARDIYRASYYRKGGCAMLPVKWMPPEAFMEGIFTSKTDTWSFGVLLWEIFSLGYMPYPSKSNQEVLEFVTSGGRMDPPKNCPGPVYRIMTQCWQHQPEDRPNFAIILERIEYCTQDPDVINTALPIEYGPLVEEEEKVPVRPKDPEGVPPLLVSQQAKREEERSPAAPPPLPTTSSGKAAKKPTAAEISVRVPRGPAVEGGHVNMAFSQSNPPSELHKVHGSRNKPTSLWNPTYGSWFTEKPTKKNNPIAKKEPHDRGNLGLEGSCTVPPNVATGRLPGASLLLEPSSLTANMKEVPLFRLRHFPCGNVNYGYQQQGLPLEAATAPGAGHYEDTILKSKNSMNQPGP

> <PDB ID(s) of Target Chain>
2XB7,2XBA,3AOX,5FTO,5FTQ,6E0R,6EBW,6EDL,6MX8

> <UniProt (SwissProt) Recommended Name of Target Chain>
ALK tyrosine kinase receptor

> <UniProt (SwissProt) Entry Name of Target Chain>
ALK_HUMAN

> <UniProt (SwissProt) Primary ID of Target Chain>
Q9UM73

> <UniProt (SwissProt) Secondary ID(s) of Target Chain>
Q4ZFX9,Q53QQ6,Q53RZ4,Q59FI3,Q9Y4K6

> <UniProt (SwissProt) Alternative ID(s) of Target Chain>


> <UniProt (TrEMBL) Submitted Name of Target Chain>


> <UniProt (TrEMBL) Entry Name of Target Chain>


> <UniProt (TrEMBL) Primary ID of Target Chain>


> <UniProt (TrEMBL) Secondary ID(s) of Target Chain>


> <UniProt (TrEMBL) Alternative ID(s) of Target Chain>


$$$$
00102001.cdx

Vconf v2.0 Academic SN VC001-00000579
 90 95  0  0  0  0  0  0  0  0999 V2000
   -1.8230    2.7750    0.9720 C   0  0  0  0  0  0  0  0  0  0  0
   -2.8770    2.4130    0.0950 C   0  0  0  0  0  0  0  0  0  0  0
   -3.5960    1.2200    0.3070 C   0  0  0  0  0  0  0  0  0  0  0
   -3.2780    0.3690    1.3750 C   0  0  0  0  0  0  0  0  0  0  0
   -2.2270    0.7020    2.2360 C   0  0  0  0  0  0  0  0  0  0  0
   -1.5060    1.8890    2.0310 C   0  0  0  0  0  0  0  0  0  0  0
   -3.3680    3.4130   -1.2480 S   0  0  0  0  0  0  0  0  0  0  0
   -4.5070    4.6940   -0.6700 C   0  0  0  0  0  0  0  0  0  0  0
   -5.7220    4.0650    0.0280 C   0  0  0  0  0  0  0  0  0  0  0
   -3.8100    5.6890    0.2700 C   0  0  0  0  0  0  0  0  0  0  0
   -2.1280    4.1980   -1.8610 O   0  0  0  0  0  0  0  0  0  0  0
   -4.2840    2.5430   -2.2150 O   0  0  0  0  0  0  0  0  0  0  0
   -1.1720    3.9570    0.7240 N   0  0  0  0  0  0  0  0  0  0  0
   -0.2500    4.6300    1.4780 C   0  0  0  0  0  0  0  0  0  0  0
    0.0670    4.2220    2.7280 N   0  0  0  0  0  0  0  0  0  0  0
    0.9480    4.8520    3.5400 C   0  0  0  0  0  0  0  0  0  0  0
    1.5630    5.9600    3.0700 N   0  0  0  0  0  0  0  0  0  0  0
    1.2990    6.4430    1.8310 C   0  0  0  0  0  0  0  0  0  0  0
    0.3740    5.7980    0.9910 C   0  0  0  0  0  0  0  0  0  0  0
    0.0720    6.4260   -0.5540 Cl  0  0  0  0  0  0  0  0  0  0  0
    1.2250    4.3820    4.7830 N   0  0  0  0  0  0  0  0  0  0  0
    0.6470    3.2690    5.3060 C   0  0  0  0  0  0  0  0  0  0  0
   -0.7620    3.1710    5.3920 C   0  0  0  0  0  0  0  0  0  0  0
   -1.3300    1.9660    5.8270 C   0  0  0  0  0  0  0  0  0  0  0
   -0.5390    0.8870    6.2000 C   0  0  0  0  0  0  0  0  0  0  0
    0.8620    0.9880    6.1850 C   0  0  0  0  0  0  0  0  0  0  0
    1.4550    2.1840    5.7270 C   0  0  0  0  0  0  0  0  0  0  0
    2.8150    2.2450    5.6800 O   0  0  0  0  0  0  0  0  0  0  0
    3.4990    2.2310    4.4200 C   0  0  0  0  0  0  0  0  0  0  0
    4.9940    2.4310    4.6960 C   0  0  0  0  0  0  0  0  0  0  0
   -2.6500    1.5690    5.9100 C   0  0  0  0  0  0  0  0  0  0  0
   -2.6910    0.2700    6.2890 N   0  0  0  0  0  0  0  0  0  0  0
   -1.3830   -0.2630    6.5270 C   0  0  0  0  0  0  0  0  0  0  0
    3.2810    0.9030    3.6760 C   0  0  0  0  0  0  0  0  0  0  0
   -3.8910   -0.4970    6.3660 C   0  0  1  0  0  0  0  0  0  0  0
   -3.9120   -1.5580    5.2540 C   0  0  0  0  0  0  0  0  0  0  0
   -5.2190   -2.3590    5.3350 C   0  0  0  0  0  0  0  0  0  0  0
   -5.3650   -2.9380    6.6380 N   0  0  0  0  0  0  0  0  0  0  0
   -5.3500   -2.0170    7.7360 C   0  0  0  0  0  0  0  0  0  0  0
   -4.0470   -1.1990    7.7260 C   0  0  0  0  0  0  0  0  0  0  0
   -3.6390    2.2740    5.6070 O   0  0  0  0  0  0  0  0  0  0  0
   -5.5360   -4.2890    6.7970 C   0  0  0  0  0  0  0  0  0  0  0
   -5.4800   -5.0350    5.7930 O   0  0  0  0  0  0  0  0  0  0  0
   -5.8190   -4.9080    8.1090 C   0  0  2  0  0  0  0  0  0  0  0
   -6.0030   -6.4330    8.0770 C   0  0  0  0  0  0  0  0  0  0  0
   -6.8490   -6.7260    9.3170 C   0  0  0  0  0  0  0  0  0  0  0
   -7.3970   -5.3610    9.7450 C   0  0  0  0  0  0  0  0  0  0  0
   -7.0930   -4.4250    8.6570 N   0  0  0  0  0  0  0  0  0  0  0
   -4.3620    0.9700   -0.3190 H   0  0  0  0  0  0  0  0  0  0  0
   -3.8050   -0.4940    1.5190 H   0  0  0  0  0  0  0  0  0  0  0
   -1.9790    0.0820    3.0090 H   0  0  0  0  0  0  0  0  0  0  0
   -0.7330    2.0760    2.6620 H   0  0  0  0  0  0  0  0  0  0  0
   -4.8590    5.2420   -1.5440 H   0  0  0  0  0  0  0  0  0  0  0
   -6.4330    4.8440    0.3050 H   0  0  0  0  0  0  0  0  0  0  0
   -6.2080    3.3640   -0.6510 H   0  0  0  0  0  0  0  0  0  0  0
   -5.4050    3.5320    0.9240 H   0  0  0  0  0  0  0  0  0  0  0
   -4.5030    6.4870    0.5380 H   0  0  0  0  0  0  0  0  0  0  0
   -3.4790    5.1840    1.1760 H   0  0  0  0  0  0  0  0  0  0  0
   -2.9490    6.1240   -0.2370 H   0  0  0  0  0  0  0  0  0  0  0
   -1.4120    4.3990   -0.1020 H   0  0  0  0  0  0  0  0  0  0  0
    1.7860    7.2830    1.5140 H   0  0  0  0  0  0  0  0  0  0  0
    1.9180    4.8260    5.2970 H   0  0  0  0  0  0  0  0  0  0  0
   -1.3580    3.9440    5.0940 H   0  0  0  0  0  0  0  0  0  0  0
    1.4420    0.1970    6.4660 H   0  0  0  0  0  0  0  0  0  0  0
    3.1590    3.0510    3.7860 H   0  0  0  0  0  0  0  0  0  0  0
    5.5460    2.4260    3.7560 H   0  0  0  0  0  0  0  0  0  0  0
    5.1440    3.3890    5.1940 H   0  0  0  0  0  0  0  0  0  0  0
    5.3640    1.6300    5.3370 H   0  0  0  0  0  0  0  0  0  0  0
   -1.2560   -0.5580    7.5690 H   0  0  0  0  0  0  0  0  0  0  0
   -1.1690   -1.0970    5.8580 H   0  0  0  0  0  0  0  0  0  0  0
    3.8880    0.8850    2.7710 H   0  0  0  0  0  0  0  0  0  0  0
    3.5640    0.0690    4.3180 H   0  0  0  0  0  0  0  0  0  0  0
    2.2310    0.8060    3.3990 H   0  0  0  0  0  0  0  0  0  0  0
   -4.7590    0.1510    6.2240 H   0  0  0  0  0  0  0  0  0  0  0
   -3.0680   -2.2380    5.3680 H   0  0  0  0  0  0  0  0  0  0  0
   -3.8490   -1.0680    4.2820 H   0  0  0  0  0  0  0  0  0  0  0
   -6.0560   -1.6830    5.1570 H   0  0  0  0  0  0  0  0  0  0  0
   -5.2120   -3.1040    4.5380 H   0  0  0  0  0  0  0  0  0  0  0
   -5.4290   -2.5070    8.7060 H   0  0  0  0  0  0  0  0  0  0  0
   -6.1940   -1.3340    7.6320 H   0  0  0  0  0  0  0  0  0  0  0
   -3.2030   -1.8690    7.8970 H   0  0  0  0  0  0  0  0  0  0  0
   -4.0800   -0.4530    8.5210 H   0  0  0  0  0  0  0  0  0  0  0
   -5.0090   -4.6720    8.8010 H   0  0  0  0  0  0  0  0  0  0  0
   -6.5570   -6.7420    7.1880 H   0  0  0  0  0  0  0  0  0  0  0
   -5.0430   -6.9490    8.1190 H   0  0  0  0  0  0  0  0  0  0  0
   -7.6630   -7.4090    9.0670 H   0  0  0  0  0  0  0  0  0  0  0
   -6.2340   -7.1510   10.1110 H   0  0  0  0  0  0  0  0  0  0  0
   -6.8940   -5.0320   10.6560 H   0  0  0  0  0  0  0  0  0  0  0
   -8.4730   -5.4100    9.9160 H   0  0  0  0  0  0  0  0  0  0  0
   -7.7900   -4.5980    7.9290 H   0  0  0  0  0  0  0  0  0  0  0
  1  2  2  0  0  0  0
  1  6  1  0  0  0  0
  1 13  1  0  0  0  0
  2  3  1  0  0  0  0
  2  7  1  0  0  0  0
  3  4  2  0  0  0  0
  3 49  1  0  0  0  0
  4  5  1  0  0  0  0
  4 50  1  0  0  0  0
  5  6  2  0  0  0  0
  5 51  1  0  0  0  0
  6 52  1  0  0  0  0
  7  8  1  0  0  0  0
  7 11  2  0  0  0  0
  7 12  2  0  0  0  0
  8  9  1  0  0  0  0
  8 10  1  0  0  0  0
  8 53  1  0  0  0  0
  9 54  1  0  0  0  0
  9 55  1  0  0  0  0
  9 56  1  0  0  0  0
 10 57  1  0  0  0  0
 10 58  1  0  0  0  0
 10 59  1  0  0  0  0
 13 14  1  0  0  0  0
 13 60  1  0  0  0  0
 14 15  2  0  0  0  0
 14 19  1  0  0  0  0
 15 16  1  0  0  0  0
 16 17  2  0  0  0  0
 16 21  1  0  0  0  0
 17 18  1  0  0  0  0
 18 19  2  0  0  0  0
 18 61  1  0  0  0  0
 19 20  1  0  0  0  0
 21 22  1  0  0  0  0
 21 62  1  0  0  0  0
 22 23  2  0  0  0  0
 22 27  1  0  0  0  0
 23 24  1  0  0  0  0
 23 63  1  0  0  0  0
 24 25  2  0  0  0  0
 24 31  1  0  0  0  0
 25 26  1  0  0  0  0
 25 33  1  0  0  0  0
 26 27  2  0  0  0  0
 26 64  1  0  0  0  0
 27 28  1  0  0  0  0
 28 29  1  0  0  0  0
 29 30  1  0  0  0  0
 29 34  1  0  0  0  0
 29 65  1  0  0  0  0
 30 66  1  0  0  0  0
 30 67  1  0  0  0  0
 30 68  1  0  0  0  0
 31 32  1  0  0  0  0
 31 41  2  0  0  0  0
 32 33  1  0  0  0  0
 32 35  1  0  0  0  0
 33 69  1  0  0  0  0
 33 70  1  0  0  0  0
 34 71  1  0  0  0  0
 34 72  1  0  0  0  0
 34 73  1  0  0  0  0
 35 36  1  0  0  0  0
 35 40  1  0  0  0  0
 35 74  1  0  0  0  0
 36 37  1  0  0  0  0
 36 75  1  0  0  0  0
 36 76  1  0  0  0  0
 37 38  1  0  0  0  0
 37 77  1  0  0  0  0
 37 78  1  0  0  0  0
 38 39  1  0  0  0  0
 38 42  1  0  0  0  0
 39 40  1  0  0  0  0
 39 79  1  0  0  0  0
 39 80  1  0  0  0  0
 40 81  1  0  0  0  0
 40 82  1  0  0  0  0
 42 43  2  0  0  0  0
 44 42  1  1  0  0  0
 44 45  1  0  0  0  0
 44 48  1  0  0  0  0
 44 83  1  0  0  0  0
 45 46  1  0  0  0  0
 45 84  1  0  0  0  0
 45 85  1  0  0  0  0
 46 47  1  0  0  0  0
 46 86  1  0  0  0  0
 46 87  1  0  0  0  0
 47 48  1  0  0  0  0
 47 88  1  0  0  0  0
 47 89  1  0  0  0  0
 48 90  1  0  0  0  0
M  END
> <From>
www.bindingDB.org

> <BindingDB Reactant_set_id>
226251

> <Ligand InChI>
InChI=1S/C34H42ClN7O5S/c1-20(2)47-29-16-22-19-42(23-11-14-41(15-12-23)33(44)27-9-7-13-36-27)32(43)24(22)17-28(29)39-34-37-18-25(35)31(40-34)38-26-8-5-6-10-30(26)48(45,46)21(3)4/h5-6,8,10,16-18,20-21,23,27,36H,7,9,11-15,19H2,1-4H3,(H2,37,38,39,40)/t27-/m0/s1

> <Ligand InChI Key>
FJZXXTRWQRVEFX-MHZLTWQESA-N

> <BindingDB MonomerID>
107038

> <BindingDB Ligand Name>
US8592432, 12

> <Target Name Assigned by Curator or DataSource>
ALK tyrosine kinase receptor

> <Target Source Organism According to Curator or DataSource>
Homo sapiens

> <Ki (nM)>


> <IC50 (nM)>
 29

> <Kd (nM)>


> <EC50 (nM)>


> <kon (M-1-s-1)>


> <koff (s-1)>


> <pH>


> <Temp C>


> <Curation/DataSource>
US Patent

> <Article DOI>


> <PMID>


> <PubChem AID>


> <Patent Number>
US8592432

> <Authors>
Chen, B; Jiang, T; Marsilje, TH; Michellys, P; Nguyen, TN; Pei, W; Wu, B; Gao, Z; Ge, Y; Huang, C; Li, Y; Zhu, X

> <Institution>
TBA

> <Link to Ligand in BindingDB>
http://www.bindingdb.org/bind/chemsearch/marvin/MolStructure.jsp?monomerid=107038

> <Link to Ligand-Target Pair in BindingDB>
http://www.bindingdb.org/jsp/dbsearch/PrimarySearch_ki.jsp?energyterm=kJ/mole&tag=pol&polymerid=5809&target=ALK+tyrosine+kinase+receptor&column=ki&startPg=0&Increment=50&submit=Search

> <Link to Ligand-Target Pair in BindingDB>
http://www.bindingdb.org/jsp/dbsearch/PrimarySearch_ki.jsp?energyterm=kJ/mole&tag=r21&monomerid=107038&enzyme=ALK+tyrosine+kinase+receptor&column=ki&startPg=0&Increment=50&submit=Search

> <Ligand HET ID in PDB>


> <PDB ID(s) for Ligand-Target Complex>


> <PubChem CID>
44467614

> <PubChem SID>
175444485

> <ChEBI ID of Ligand>


> <ChEMBL ID of Ligand>


> <DrugBank ID of Ligand>


> <IUPHAR_GRAC ID of Ligand>


> <KEGG ID of Ligand>


> <ZINC ID of Ligand>
ZINC96177894

> <Number of Protein Chains in Target (>1 implies a multichain complex)>
1

> <BindingDB Target Chain Sequence>
MGAIGLLWLLPLLLSTAAVGSGMGTGQRAGSPAAGPPLQPREPLSYSRLQRKSLAVDFVVPSLFRVYARDLLLPPSSSELKAGRPEARGSLALDCAPLLRLLGPAPGVSWTAGSPAPAEARTLSRVLKGGSVRKLRRAKQLVLELGEEAILEGCVGPPGEAAVGLLQFNLSELFSWWIRQGEGRLRIRLMPEKKASEVGREGRLSAAIRASQPRLLFQIFGTGHSSLESPTNMPSPSPDYFTWNLTWIMKDSFPFLSHRSRYGLECSFDFPCELEYSPPLHDLRNQSWSWRRIPSEEASQMDLLDGPGAERSKEMPRGSFLLLNTSADSKHTILSPWMRSSSEHCTLAVSVHRHLQPSGRYIAQLLPHNEAAREILLMPTPGKHGWTVLQGRIGRPDNPFRVALEYISSGNRSLSAVDFFALKNCSEGTSPGSKMALQSSFTCWNGTVLQLGQACDFHQDCAQGEDESQMCRKLPVGFYCNFEDGFCGWTQGTLSPHTPQWQVRTLKDARFQDHQDHALLLSTTDVPASESATVTSATFPAPIKSSPCELRMSWLIRGVLRGNVSLVLVENKTGKEQGRMVWHVAAYEGLSLWQWMVLPLLDVSDRFWLQMVAWWGQGSRAIVAFDNISISLDCYLTISGEDKILQNTAPKSRNLFERNPNKELKPGENSPRQTPIFDPTVHWLFTTCGASGPHGPTQAQCNNAYQNSNLSVEVGSEGPLKGIQIWKVPATDTYSISGYGAAGGKGGKNTMMRSHGVSVLGIFNLEKDDMLYILVGQQGEDACPSTNQLIQKVCIGENNVIEEEIRVNRSVHEWAGGGGGGGGATYVFKMKDGVPVPLIIAAGGGGRAYGAKTDTFHPERLENNSSVLGLNGNSGAAGGGGGWNDNTSLLWAGKSLQEGATGGHSCPQAMKKWGWETRGGFGGGGGGCSSGGGGGGYIGGNAASNNDPEMDGEDGVSFISPLGILYTPALKVMEGHGEVNIKHYLNCSHCEVDECHMDPESHKVICFCDHGTVLAEDGVSCIVSPTPEPHLPLSLILSVVTSALVAALVLAFSGIMIVYRRKHQELQAMQMELQSPEYKLSKLRTSTIMTDYNPNYCFAGKTSSISDLKEVPRKNITLIRGLGHGAFGEVYEGQVSGMPNDPSPLQVAVKTLPEVCSEQDELDFLMEALIISKFNHQNIVRCIGVSLQSLPRFILLELMAGGDLKSFLRETRPRPSQPSSLAMLDLLHVARDIACGCQYLEENHFIHRDIAARNCLLTCPGPGRVAKIGDFGMARDIYRASYYRKGGCAMLPVKWMPPEAFMEGIFTSKTDTWSFGVLLWEIFSLGYMPYPSKSNQEVLEFVTSGGRMDPPKNCPGPVYRIMTQCWQHQPEDRPNFAIILERIEYCTQDPDVINTALPIEYGPLVEEEEKVPVRPKDPEGVPPLLVSQQAKREEERSPAAPPPLPTTSSGKAAKKPTAAEISVRVPRGPAVEGGHVNMAFSQSNPPSELHKVHGSRNKPTSLWNPTYGSWFTEKPTKKNNPIAKKEPHDRGNLGLEGSCTVPPNVATGRLPGASLLLEPSSLTANMKEVPLFRLRHFPCGNVNYGYQQQGLPLEAATAPGAGHYEDTILKSKNSMNQPGP

> <PDB ID(s) of Target Chain>
2XB7,2XBA,3AOX,5FTO,5FTQ,6E0R,6EBW,6EDL,6MX8

> <UniProt (SwissProt) Recommended Name of Target Chain>
ALK tyrosine kinase receptor

> <UniProt (SwissProt) Entry Name of Target Chain>
ALK_HUMAN

> <UniProt (SwissProt) Primary ID of Target Chain>
Q9UM73

> <UniProt (SwissProt) Secondary ID(s) of Target Chain>
Q4ZFX9,Q53QQ6,Q53RZ4,Q59FI3,Q9Y4K6

> <UniProt (SwissProt) Alternative ID(s) of Target Chain>


> <UniProt (TrEMBL) Submitted Name of Target Chain>


> <UniProt (TrEMBL) Entry Name of Target Chain>


> <UniProt (TrEMBL) Primary ID of Target Chain>


> <UniProt (TrEMBL) Secondary ID(s) of Target Chain>


> <UniProt (TrEMBL) Alternative ID(s) of Target Chain>


$$$$
00104001.cdx

Vconf v2.0 Academic SN VC001-00000579
 93 98  0  0  0  0  0  0  0  0999 V2000
   -1.7830    2.8610   -0.2980 C   0  0  0  0  0  0  0  0  0  0  0
   -3.1000    2.7070    0.1960 C   0  0  0  0  0  0  0  0  0  0  0
   -3.6040    1.4280    0.5000 C   0  0  0  0  0  0  0  0  0  0  0
   -2.8100    0.2870    0.3160 C   0  0  0  0  0  0  0  0  0  0  0
   -1.5050    0.4220   -0.1770 C   0  0  0  0  0  0  0  0  0  0  0
   -0.9980    1.6960   -0.4820 C   0  0  0  0  0  0  0  0  0  0  0
   -4.1470    4.0820    0.4150 S   0  0  0  0  0  0  0  0  0  0  0
   -4.4680    4.7810   -1.2210 C   0  0  0  0  0  0  0  0  0  0  0
   -5.1360    3.7400   -2.1320 C   0  0  0  0  0  0  0  0  0  0  0
   -5.3630    6.0190   -1.0750 C   0  0  0  0  0  0  0  0  0  0  0
   -5.5690    3.6040    0.9470 O   0  0  0  0  0  0  0  0  0  0  0
   -3.3150    5.2140    1.1600 O   0  0  0  0  0  0  0  0  0  0  0
   -1.3790    4.1430   -0.5580 N   0  0  0  0  0  0  0  0  0  0  0
   -0.2050    4.6220   -1.0620 C   0  0  0  0  0  0  0  0  0  0  0
    0.8090    3.7970   -1.4120 N   0  0  0  0  0  0  0  0  0  0  0
    1.9940    4.2210   -1.9100 C   0  0  0  0  0  0  0  0  0  0  0
    2.1830    5.5500   -2.0680 N   0  0  0  0  0  0  0  0  0  0  0
    1.2160    6.4440   -1.7490 C   0  0  0  0  0  0  0  0  0  0  0
   -0.0180    6.0100   -1.2350 C   0  0  0  0  0  0  0  0  0  0  0
   -1.2100    7.1550   -0.8550 Cl  0  0  0  0  0  0  0  0  0  0  0
    2.9780    3.3550   -2.2480 N   0  0  0  0  0  0  0  0  0  0  0
    2.8500    2.0090   -2.1410 C   0  0  0  0  0  0  0  0  0  0  0
    3.6080    1.3370   -1.1600 C   0  0  0  0  0  0  0  0  0  0  0
    3.4230   -0.0450   -1.0010 C   0  0  0  0  0  0  0  0  0  0  0
    2.5260   -0.7500   -1.7920 C   0  0  0  0  0  0  0  0  0  0  0
    1.7790   -0.1000   -2.7840 C   0  0  0  0  0  0  0  0  0  0  0
    1.9460    1.2930   -2.9690 C   0  0  0  0  0  0  0  0  0  0  0
    1.2450    2.0120   -3.8960 O   0  0  0  0  0  0  0  0  0  0  0
    0.3780    1.4410   -4.8820 C   0  0  0  0  0  0  0  0  0  0  0
   -0.4410    2.5890   -5.4840 C   0  0  0  0  0  0  0  0  0  0  0
    3.9890   -0.9400   -0.1120 C   0  0  0  0  0  0  0  0  0  0  0
    3.4620   -2.1700   -0.3360 N   0  0  0  0  0  0  0  0  0  0  0
    2.5110   -2.1600   -1.4020 C   0  0  0  0  0  0  0  0  0  0  0
    1.1850    0.7440   -5.9900 C   0  0  0  0  0  0  0  0  0  0  0
    3.7670   -3.3570    0.3930 C   0  0  1  0  0  0  0  0  0  0  0
    5.2610   -3.7220    0.3150 C   0  0  0  0  0  0  0  0  0  0  0
    5.5160   -5.0070    1.1180 C   0  0  0  0  0  0  0  0  0  0  0
    5.0630   -4.8360    2.4660 N   0  0  0  0  0  0  0  0  0  0  0
    3.6690   -4.5410    2.6120 C   0  0  0  0  0  0  0  0  0  0  0
    3.3450   -3.2350    1.8690 C   0  0  0  0  0  0  0  0  0  0  0
    4.8350   -0.6500    0.7630 O   0  0  0  0  0  0  0  0  0  0  0
    5.8850   -4.9380    3.5560 C   0  0  0  0  0  0  0  0  0  0  0
    5.3960   -4.8390    4.7050 O   0  0  0  0  0  0  0  0  0  0  0
    7.3460   -5.1390    3.4440 C   0  0  1  0  0  0  0  0  0  0  0
    8.0590   -3.8870    2.8920 C   0  0  0  0  0  0  0  0  0  0  0
    9.3860   -3.8090    3.6540 C   0  0  0  0  0  0  0  0  0  0  0
    9.4250   -5.0960    4.4770 C   0  0  0  0  0  0  0  0  0  0  0
    8.0110   -5.3920    4.7380 N   0  0  0  0  0  0  0  0  0  0  0
    7.8420   -6.7840    5.1960 C   0  0  0  0  0  0  0  0  0  0  0
   -4.5550    1.3260    0.8540 H   0  0  0  0  0  0  0  0  0  0  0
   -3.1800   -0.6370    0.5390 H   0  0  0  0  0  0  0  0  0  0  0
   -0.9220   -0.4040   -0.3140 H   0  0  0  0  0  0  0  0  0  0  0
   -0.0470    1.7470   -0.8310 H   0  0  0  0  0  0  0  0  0  0  0
   -3.5250    5.0880   -1.6730 H   0  0  0  0  0  0  0  0  0  0  0
   -5.3590    4.1880   -3.1010 H   0  0  0  0  0  0  0  0  0  0  0
   -4.4630    2.8960   -2.2780 H   0  0  0  0  0  0  0  0  0  0  0
   -6.0600    3.3880   -1.6740 H   0  0  0  0  0  0  0  0  0  0  0
   -5.5450    6.4630   -2.0540 H   0  0  0  0  0  0  0  0  0  0  0
   -6.3130    5.7340   -0.6230 H   0  0  0  0  0  0  0  0  0  0  0
   -4.8670    6.7500   -0.4360 H   0  0  0  0  0  0  0  0  0  0  0
   -2.0290    4.8300   -0.3460 H   0  0  0  0  0  0  0  0  0  0  0
    1.3970    7.4390   -1.8900 H   0  0  0  0  0  0  0  0  0  0  0
    3.8220    3.7180   -2.5560 H   0  0  0  0  0  0  0  0  0  0  0
    4.2570    1.8480   -0.5600 H   0  0  0  0  0  0  0  0  0  0  0
    1.1180   -0.6290   -3.3510 H   0  0  0  0  0  0  0  0  0  0  0
   -0.3160    0.7350   -4.4230 H   0  0  0  0  0  0  0  0  0  0  0
   -1.1370    2.1980   -6.2250 H   0  0  0  0  0  0  0  0  0  0  0
   -1.0010    3.0860   -4.6910 H   0  0  0  0  0  0  0  0  0  0  0
    0.2260    3.3100   -5.9570 H   0  0  0  0  0  0  0  0  0  0  0
    1.5230   -2.4560   -1.0470 H   0  0  0  0  0  0  0  0  0  0  0
    2.8350   -2.8000   -2.2240 H   0  0  0  0  0  0  0  0  0  0  0
    0.5080    0.3720   -6.7580 H   0  0  0  0  0  0  0  0  0  0  0
    1.8830    1.4530   -6.4360 H   0  0  0  0  0  0  0  0  0  0  0
    1.7450   -0.0940   -5.5760 H   0  0  0  0  0  0  0  0  0  0  0
    3.2030   -4.1830   -0.0440 H   0  0  0  0  0  0  0  0  0  0  0
    5.8700   -2.9190    0.7320 H   0  0  0  0  0  0  0  0  0  0  0
    5.5450   -3.8830   -0.7250 H   0  0  0  0  0  0  0  0  0  0  0
    4.9570   -5.8240    0.6610 H   0  0  0  0  0  0  0  0  0  0  0
    6.5740   -5.2500    1.0450 H   0  0  0  0  0  0  0  0  0  0  0
    3.0840   -5.3540    2.1810 H   0  0  0  0  0  0  0  0  0  0  0
    3.3690   -4.4220    3.6550 H   0  0  0  0  0  0  0  0  0  0  0
    3.8830   -2.4150    2.3450 H   0  0  0  0  0  0  0  0  0  0  0
    2.2740   -3.0420    1.9280 H   0  0  0  0  0  0  0  0  0  0  0
    7.5460   -5.9850    2.7840 H   0  0  0  0  0  0  0  0  0  0  0
    7.4840   -2.9780    3.0810 H   0  0  0  0  0  0  0  0  0  0  0
    8.2430   -3.9890    1.8230 H   0  0  0  0  0  0  0  0  0  0  0
   10.2350   -3.7540    2.9730 H   0  0  0  0  0  0  0  0  0  0  0
    9.3810   -2.9450    4.3200 H   0  0  0  0  0  0  0  0  0  0  0
    9.8860   -5.8910    3.8870 H   0  0  0  0  0  0  0  0  0  0  0
    9.9750   -4.9510    5.4070 H   0  0  0  0  0  0  0  0  0  0  0
    8.4040   -6.9330    6.1180 H   0  0  0  0  0  0  0  0  0  0  0
    6.7880   -6.9810    5.3940 H   0  0  0  0  0  0  0  0  0  0  0
    8.2010   -7.4850    4.4410 H   0  0  0  0  0  0  0  0  0  0  0
  1  2  2  0  0  0  0
  1  6  1  0  0  0  0
  1 13  1  0  0  0  0
  2  3  1  0  0  0  0
  2  7  1  0  0  0  0
  3  4  2  0  0  0  0
  3 50  1  0  0  0  0
  4  5  1  0  0  0  0
  4 51  1  0  0  0  0
  5  6  2  0  0  0  0
  5 52  1  0  0  0  0
  6 53  1  0  0  0  0
  7  8  1  0  0  0  0
  7 11  2  0  0  0  0
  7 12  2  0  0  0  0
  8  9  1  0  0  0  0
  8 10  1  0  0  0  0
  8 54  1  0  0  0  0
  9 55  1  0  0  0  0
  9 56  1  0  0  0  0
  9 57  1  0  0  0  0
 10 58  1  0  0  0  0
 10 59  1  0  0  0  0
 10 60  1  0  0  0  0
 13 14  1  0  0  0  0
 13 61  1  0  0  0  0
 14 15  2  0  0  0  0
 14 19  1  0  0  0  0
 15 16  1  0  0  0  0
 16 17  2  0  0  0  0
 16 21  1  0  0  0  0
 17 18  1  0  0  0  0
 18 19  2  0  0  0  0
 18 62  1  0  0  0  0
 19 20  1  0  0  0  0
 21 22  1  0  0  0  0
 21 63  1  0  0  0  0
 22 23  2  0  0  0  0
 22 27  1  0  0  0  0
 23 24  1  0  0  0  0
 23 64  1  0  0  0  0
 24 25  2  0  0  0  0
 24 31  1  0  0  0  0
 25 26  1  0  0  0  0
 25 33  1  0  0  0  0
 26 27  2  0  0  0  0
 26 65  1  0  0  0  0
 27 28  1  0  0  0  0
 28 29  1  0  0  0  0
 29 30  1  0  0  0  0
 29 34  1  0  0  0  0
 29 66  1  0  0  0  0
 30 67  1  0  0  0  0
 30 68  1  0  0  0  0
 30 69  1  0  0  0  0
 31 32  1  0  0  0  0
 31 41  2  0  0  0  0
 32 33  1  0  0  0  0
 32 35  1  0  0  0  0
 33 70  1  0  0  0  0
 33 71  1  0  0  0  0
 34 72  1  0  0  0  0
 34 73  1  0  0  0  0
 34 74  1  0  0  0  0
 35 36  1  0  0  0  0
 35 40  1  0  0  0  0
 35 75  1  0  0  0  0
 36 37  1  0  0  0  0
 36 76  1  0  0  0  0
 36 77  1  0  0  0  0
 37 38  1  0  0  0  0
 37 78  1  0  0  0  0
 37 79  1  0  0  0  0
 38 39  1  0  0  0  0
 38 42  1  0  0  0  0
 39 40  1  0  0  0  0
 39 80  1  0  0  0  0
 39 81  1  0  0  0  0
 40 82  1  0  0  0  0
 40 83  1  0  0  0  0
 42 43  2  0  0  0  0
 42 44  1  0  0  0  0
 44 45  1  0  0  0  0
 44 48  1  0  0  0  0
 44 84  1  0  0  0  0
 45 46  1  0  0  0  0
 45 85  1  0  0  0  0
 45 86  1  0  0  0  0
 46 47  1  0  0  0  0
 46 87  1  0  0  0  0
 46 88  1  0  0  0  0
 47 48  1  0  0  0  0
 47 89  1  0  0  0  0
 47 90  1  0  0  0  0
 48 49  1  0  0  0  0
 49 91  1  0  0  0  0
 49 92  1  0  0  0  0
 49 93  1  0  0  0  0
M  END
> <From>
www.bindingDB.org

> <BindingDB Reactant_set_id>
226252

> <Ligand InChI>
InChI=1S/C35H44ClN7O5S/c1-21(2)48-30-17-23-20-43(24-12-15-42(16-13-24)34(45)29-10-8-14-41(29)5)33(44)25(23)18-28(30)39-35-37-19-26(36)32(40-35)38-27-9-6-7-11-31(27)49(46,47)22(3)4/h6-7,9,11,17-19,21-22,24,29H,8,10,12-16,20H2,1-5H3,(H2,37,38,39,40)

> <Ligand InChI Key>
OXHQSLVSULVZQB-UHFFFAOYSA-N

> <BindingDB MonomerID>
107039

> <BindingDB Ligand Name>
US8592432, 14

> <Target Name Assigned by Curator or DataSource>
ALK tyrosine kinase receptor

> <Target Source Organism According to Curator or DataSource>
Homo sapiens

> <Ki (nM)>


> <IC50 (nM)>
 5

> <Kd (nM)>


> <EC50 (nM)>


> <kon (M-1-s-1)>


> <koff (s-1)>


> <pH>


> <Temp C>


> <Curation/DataSource>
US Patent

> <Article DOI>


> <PMID>


> <PubChem AID>


> <Patent Number>
US8592432

> <Authors>
Chen, B; Jiang, T; Marsilje, TH; Michellys, P; Nguyen, TN; Pei, W; Wu, B; Gao, Z; Ge, Y; Huang, C; Li, Y; Zhu, X

> <Institution>
TBA

> <Link to Ligand in BindingDB>
http://www.bindingdb.org/bind/chemsearch/marvin/MolStructure.jsp?monomerid=107039

> <Link to Ligand-Target Pair in BindingDB>
http://www.bindingdb.org/jsp/dbsearch/PrimarySearch_ki.jsp?energyterm=kJ/mole&tag=pol&polymerid=5809&target=ALK+tyrosine+kinase+receptor&column=ki&startPg=0&Increment=50&submit=Search

> <Link to Ligand-Target Pair in BindingDB>
http://www.bindingdb.org/jsp/dbsearch/PrimarySearch_ki.jsp?energyterm=kJ/mole&tag=r21&monomerid=107039&enzyme=ALK+tyrosine+kinase+receptor&column=ki&startPg=0&Increment=50&submit=Search

> <Ligand HET ID in PDB>


> <PDB ID(s) for Ligand-Target Complex>


> <PubChem CID>
44467682

> <PubChem SID>
175444486

> <ChEBI ID of Ligand>


> <ChEMBL ID of Ligand>


> <DrugBank ID of Ligand>


> <IUPHAR_GRAC ID of Ligand>


> <KEGG ID of Ligand>


> <ZINC ID of Ligand>
ZINC96177896

> <Number of Protein Chains in Target (>1 implies a multichain complex)>
1

> <BindingDB Target Chain Sequence>
MGAIGLLWLLPLLLSTAAVGSGMGTGQRAGSPAAGPPLQPREPLSYSRLQRKSLAVDFVVPSLFRVYARDLLLPPSSSELKAGRPEARGSLALDCAPLLRLLGPAPGVSWTAGSPAPAEARTLSRVLKGGSVRKLRRAKQLVLELGEEAILEGCVGPPGEAAVGLLQFNLSELFSWWIRQGEGRLRIRLMPEKKASEVGREGRLSAAIRASQPRLLFQIFGTGHSSLESPTNMPSPSPDYFTWNLTWIMKDSFPFLSHRSRYGLECSFDFPCELEYSPPLHDLRNQSWSWRRIPSEEASQMDLLDGPGAERSKEMPRGSFLLLNTSADSKHTILSPWMRSSSEHCTLAVSVHRHLQPSGRYIAQLLPHNEAAREILLMPTPGKHGWTVLQGRIGRPDNPFRVALEYISSGNRSLSAVDFFALKNCSEGTSPGSKMALQSSFTCWNGTVLQLGQACDFHQDCAQGEDESQMCRKLPVGFYCNFEDGFCGWTQGTLSPHTPQWQVRTLKDARFQDHQDHALLLSTTDVPASESATVTSATFPAPIKSSPCELRMSWLIRGVLRGNVSLVLVENKTGKEQGRMVWHVAAYEGLSLWQWMVLPLLDVSDRFWLQMVAWWGQGSRAIVAFDNISISLDCYLTISGEDKILQNTAPKSRNLFERNPNKELKPGENSPRQTPIFDPTVHWLFTTCGASGPHGPTQAQCNNAYQNSNLSVEVGSEGPLKGIQIWKVPATDTYSISGYGAAGGKGGKNTMMRSHGVSVLGIFNLEKDDMLYILVGQQGEDACPSTNQLIQKVCIGENNVIEEEIRVNRSVHEWAGGGGGGGGATYVFKMKDGVPVPLIIAAGGGGRAYGAKTDTFHPERLENNSSVLGLNGNSGAAGGGGGWNDNTSLLWAGKSLQEGATGGHSCPQAMKKWGWETRGGFGGGGGGCSSGGGGGGYIGGNAASNNDPEMDGEDGVSFISPLGILYTPALKVMEGHGEVNIKHYLNCSHCEVDECHMDPESHKVICFCDHGTVLAEDGVSCIVSPTPEPHLPLSLILSVVTSALVAALVLAFSGIMIVYRRKHQELQAMQMELQSPEYKLSKLRTSTIMTDYNPNYCFAGKTSSISDLKEVPRKNITLIRGLGHGAFGEVYEGQVSGMPNDPSPLQVAVKTLPEVCSEQDELDFLMEALIISKFNHQNIVRCIGVSLQSLPRFILLELMAGGDLKSFLRETRPRPSQPSSLAMLDLLHVARDIACGCQYLEENHFIHRDIAARNCLLTCPGPGRVAKIGDFGMARDIYRASYYRKGGCAMLPVKWMPPEAFMEGIFTSKTDTWSFGVLLWEIFSLGYMPYPSKSNQEVLEFVTSGGRMDPPKNCPGPVYRIMTQCWQHQPEDRPNFAIILERIEYCTQDPDVINTALPIEYGPLVEEEEKVPVRPKDPEGVPPLLVSQQAKREEERSPAAPPPLPTTSSGKAAKKPTAAEISVRVPRGPAVEGGHVNMAFSQSNPPSELHKVHGSRNKPTSLWNPTYGSWFTEKPTKKNNPIAKKEPHDRGNLGLEGSCTVPPNVATGRLPGASLLLEPSSLTANMKEVPLFRLRHFPCGNVNYGYQQQGLPLEAATAPGAGHYEDTILKSKNSMNQPGP

> <PDB ID(s) of Target Chain>
2XB7,2XBA,3AOX,5FTO,5FTQ,6E0R,6EBW,6EDL,6MX8

> <UniProt (SwissProt) Recommended Name of Target Chain>
ALK tyrosine kinase receptor

> <UniProt (SwissProt) Entry Name of Target Chain>
ALK_HUMAN

> <UniProt (SwissProt) Primary ID of Target Chain>
Q9UM73

> <UniProt (SwissProt) Secondary ID(s) of Target Chain>
Q4ZFX9,Q53QQ6,Q53RZ4,Q59FI3,Q9Y4K6

> <UniProt (SwissProt) Alternative ID(s) of Target Chain>


> <UniProt (TrEMBL) Submitted Name of Target Chain>


> <UniProt (TrEMBL) Entry Name of Target Chain>


> <UniProt (TrEMBL) Primary ID of Target Chain>


> <UniProt (TrEMBL) Secondary ID(s) of Target Chain>


> <UniProt (TrEMBL) Alternative ID(s) of Target Chain>


$$$$
00105001.cdx

Vconf v2.0 Academic SN VC001-00000579
 93 98  0  0  0  0  0  0  0  0999 V2000
   -5.9480   -2.4860    1.7600 C   0  0  0  0  0  0  0  0  0  0  0
   -5.3700   -3.4130    0.8820 C   0  0  0  0  0  0  0  0  0  0  0
   -3.9690   -3.5080    0.7610 C   0  0  0  0  0  0  0  0  0  0  0
   -3.1250   -2.6700    1.5300 C   0  0  0  0  0  0  0  0  0  0  0
   -3.7300   -1.7300    2.4000 C   0  0  0  0  0  0  0  0  0  0  0
   -5.1270   -1.6420    2.5190 C   0  0  0  0  0  0  0  0  0  0  0
   -3.3130   -4.7200   -0.3020 S   0  0  0  0  0  0  0  0  0  0  0
   -2.4500   -5.9230    0.7340 C   0  0  0  0  0  0  0  0  0  0  0
   -3.4140   -6.5580    1.7480 C   0  0  0  0  0  0  0  0  0  0  0
   -1.8250   -7.0070   -0.1530 C   0  0  0  0  0  0  0  0  0  0  0
   -4.4920   -5.5350   -0.9900 O   0  0  0  0  0  0  0  0  0  0  0
   -2.1570   -4.0410   -1.1600 O   0  0  0  0  0  0  0  0  0  0  0
   -1.7750   -2.8300    1.3570 N   0  0  0  0  0  0  0  0  0  0  0
   -0.7320   -2.3240    2.0780 C   0  0  0  0  0  0  0  0  0  0  0
   -0.9430   -1.6330    3.2210 N   0  0  0  0  0  0  0  0  0  0  0
    0.0400   -1.1340    4.0060 C   0  0  0  0  0  0  0  0  0  0  0
    1.3210   -1.3280    3.6210 N   0  0  0  0  0  0  0  0  0  0  0
    1.6230   -2.0180    2.4930 C   0  0  0  0  0  0  0  0  0  0  0
    0.6030   -2.5500    1.6830 C   0  0  0  0  0  0  0  0  0  0  0
    1.0110   -3.4250    0.2900 Cl  0  0  0  0  0  0  0  0  0  0  0
   -0.2500   -0.4620    5.1500 N   0  0  0  0  0  0  0  0  0  0  0
   -1.5200   -0.2950    5.6000 C   0  0  0  0  0  0  0  0  0  0  0
   -2.0570    1.0060    5.7750 C   0  0  0  0  0  0  0  0  0  0  0
   -3.4110    1.1740    6.1380 C   0  0  0  0  0  0  0  0  0  0  0
   -4.2210    0.0370    6.2960 C   0  0  0  0  0  0  0  0  0  0  0
   -3.6840   -1.2350    6.1520 C   0  0  0  0  0  0  0  0  0  0  0
   -2.3350   -1.4270    5.8300 C   0  0  0  0  0  0  0  0  0  0  0
   -5.6600   -0.0580    6.5500 C   0  0  0  0  0  0  0  0  0  0  0
   -5.8700   -1.4720    6.4830 N   0  0  0  0  0  0  0  0  0  0  0
   -4.7100   -2.1480    6.2870 C   0  0  0  0  0  0  0  0  0  0  0
   -1.3060    2.1220    5.5680 O   0  0  0  0  0  0  0  0  0  0  0
   -0.9480    2.5150    4.2380 C   0  0  0  0  0  0  0  0  0  0  0
   -2.1850    2.8880    3.4030 C   0  0  0  0  0  0  0  0  0  0  0
   -0.0190    3.7310    4.3460 C   0  0  0  0  0  0  0  0  0  0  0
   -4.5900   -3.3860    6.1470 O   0  0  0  0  0  0  0  0  0  0  0
   -7.1690   -2.0620    6.5350 C   0  0  1  0  0  0  0  0  0  0  0
   -7.5230   -2.6980    5.1750 C   0  0  0  0  0  0  0  0  0  0  0
   -8.8760   -3.4210    5.2410 C   0  0  0  0  0  0  0  0  0  0  0
   -8.8500   -4.3650    6.3150 N   0  0  0  0  0  0  0  0  0  0  0
   -8.6630   -3.7940    7.6140 C   0  0  0  0  0  0  0  0  0  0  0
   -7.2900   -3.1040    7.6650 C   0  0  0  0  0  0  0  0  0  0  0
   -8.9270   -5.7220    6.1330 C   0  0  0  0  0  0  0  0  0  0  0
   -9.0370   -6.3560    4.8000 C   0  0  2  0  0  0  0  0  0  0  0
   -8.8650   -6.4750    7.1330 O   0  0  0  0  0  0  0  0  0  0  0
  -10.4330   -6.1730    4.1660 C   0  0  0  0  0  0  0  0  0  0  0
  -10.7940   -7.5400    3.5760 C   0  0  0  0  0  0  0  0  0  0  0
   -9.4840   -8.3220    3.6230 C   0  0  0  0  0  0  0  0  0  0  0
   -8.8310   -7.8190    4.8370 N   0  0  0  0  0  0  0  0  0  0  0
   -7.4060   -8.1960    4.8650 C   0  0  0  0  0  0  0  0  0  0  0
   -6.9640   -2.4240    1.8450 H   0  0  0  0  0  0  0  0  0  0  0
   -5.9710   -4.0260    0.3320 H   0  0  0  0  0  0  0  0  0  0  0
   -3.1710   -1.0780    2.9430 H   0  0  0  0  0  0  0  0  0  0  0
   -5.5420   -0.9580    3.1540 H   0  0  0  0  0  0  0  0  0  0  0
   -1.6500   -5.4210    1.2780 H   0  0  0  0  0  0  0  0  0  0  0
   -2.8860   -7.3060    2.3390 H   0  0  0  0  0  0  0  0  0  0  0
   -3.8040   -5.7900    2.4160 H   0  0  0  0  0  0  0  0  0  0  0
   -4.2440   -7.0320    1.2230 H   0  0  0  0  0  0  0  0  0  0  0
   -1.2830   -7.7230    0.4640 H   0  0  0  0  0  0  0  0  0  0  0
   -2.6070   -7.5250   -0.7090 H   0  0  0  0  0  0  0  0  0  0  0
   -1.1320   -6.5440   -0.8570 H   0  0  0  0  0  0  0  0  0  0  0
   -1.5150   -3.4050    0.6220 H   0  0  0  0  0  0  0  0  0  0  0
    2.6040   -2.1510    2.2430 H   0  0  0  0  0  0  0  0  0  0  0
    0.4780   -0.0580    5.6460 H   0  0  0  0  0  0  0  0  0  0  0
   -3.8070    2.1090    6.2390 H   0  0  0  0  0  0  0  0  0  0  0
   -1.9660   -2.3710    5.7030 H   0  0  0  0  0  0  0  0  0  0  0
   -5.9160    0.3370    7.5340 H   0  0  0  0  0  0  0  0  0  0  0
   -6.2230    0.4540    5.7680 H   0  0  0  0  0  0  0  0  0  0  0
   -0.4060    1.7150    3.7330 H   0  0  0  0  0  0  0  0  0  0  0
   -1.8710    3.2520    2.4240 H   0  0  0  0  0  0  0  0  0  0  0
   -2.8180    2.0110    3.2680 H   0  0  0  0  0  0  0  0  0  0  0
   -2.7520    3.6670    3.9130 H   0  0  0  0  0  0  0  0  0  0  0
    0.2990    4.0430    3.3510 H   0  0  0  0  0  0  0  0  0  0  0
   -0.5430    4.5540    4.8320 H   0  0  0  0  0  0  0  0  0  0  0
    0.8590    3.4660    4.9350 H   0  0  0  0  0  0  0  0  0  0  0
   -7.9020   -1.2760    6.7310 H   0  0  0  0  0  0  0  0  0  0  0
   -6.7600   -3.4220    4.8880 H   0  0  0  0  0  0  0  0  0  0  0
   -7.5710   -1.9170    4.4150 H   0  0  0  0  0  0  0  0  0  0  0
   -9.6650   -2.6900    5.4270 H   0  0  0  0  0  0  0  0  0  0  0
   -9.0640   -3.8770    4.2720 H   0  0  0  0  0  0  0  0  0  0  0
   -9.4450   -3.0560    7.8010 H   0  0  0  0  0  0  0  0  0  0  0
   -8.7020   -4.5380    8.4110 H   0  0  0  0  0  0  0  0  0  0  0
   -6.5200   -3.8680    7.5580 H   0  0  0  0  0  0  0  0  0  0  0
   -7.1670   -2.6110    8.6300 H   0  0  0  0  0  0  0  0  0  0  0
   -8.2890   -5.9190    4.1360 H   0  0  0  0  0  0  0  0  0  0  0
  -11.1850   -5.8860    4.9030 H   0  0  0  0  0  0  0  0  0  0  0
  -10.3900   -5.4270    3.3730 H   0  0  0  0  0  0  0  0  0  0  0
  -11.5360   -8.0320    4.2060 H   0  0  0  0  0  0  0  0  0  0  0
  -11.1650   -7.4530    2.5540 H   0  0  0  0  0  0  0  0  0  0  0
   -9.6680   -9.3950    3.6890 H   0  0  0  0  0  0  0  0  0  0  0
   -8.8870   -8.0960    2.7380 H   0  0  0  0  0  0  0  0  0  0  0
   -7.3180   -9.2830    4.8570 H   0  0  0  0  0  0  0  0  0  0  0
   -6.8810   -7.7870    4.0000 H   0  0  0  0  0  0  0  0  0  0  0
   -6.9430   -7.8150    5.7760 H   0  0  0  0  0  0  0  0  0  0  0
  1  2  2  0  0  0  0
  1  6  1  0  0  0  0
  1 50  1  0  0  0  0
  2  3  1  0  0  0  0
  2 51  1  0  0  0  0
  3  4  2  0  0  0  0
  3  7  1  0  0  0  0
  4  5  1  0  0  0  0
  4 13  1  0  0  0  0
  5  6  2  0  0  0  0
  5 52  1  0  0  0  0
  6 53  1  0  0  0  0
  7  8  1  0  0  0  0
  7 11  2  0  0  0  0
  7 12  2  0  0  0  0
  8  9  1  0  0  0  0
  8 10  1  0  0  0  0
  8 54  1  0  0  0  0
  9 55  1  0  0  0  0
  9 56  1  0  0  0  0
  9 57  1  0  0  0  0
 10 58  1  0  0  0  0
 10 59  1  0  0  0  0
 10 60  1  0  0  0  0
 13 14  1  0  0  0  0
 13 61  1  0  0  0  0
 14 15  2  0  0  0  0
 14 19  1  0  0  0  0
 15 16  1  0  0  0  0
 16 17  2  0  0  0  0
 16 21  1  0  0  0  0
 17 18  1  0  0  0  0
 18 19  2  0  0  0  0
 18 62  1  0  0  0  0
 19 20  1  0  0  0  0
 21 22  1  0  0  0  0
 21 63  1  0  0  0  0
 22 23  2  0  0  0  0
 22 27  1  0  0  0  0
 23 24  1  0  0  0  0
 23 31  1  0  0  0  0
 24 25  2  0  0  0  0
 24 64  1  0  0  0  0
 25 26  1  0  0  0  0
 25 28  1  0  0  0  0
 26 27  2  0  0  0  0
 26 30  1  0  0  0  0
 27 65  1  0  0  0  0
 28 29  1  0  0  0  0
 28 66  1  0  0  0  0
 28 67  1  0  0  0  0
 29 30  1  0  0  0  0
 29 36  1  0  0  0  0
 30 35  2  0  0  0  0
 31 32  1  0  0  0  0
 32 33  1  0  0  0  0
 32 34  1  0  0  0  0
 32 68  1  0  0  0  0
 33 69  1  0  0  0  0
 33 70  1  0  0  0  0
 33 71  1  0  0  0  0
 34 72  1  0  0  0  0
 34 73  1  0  0  0  0
 34 74  1  0  0  0  0
 36 37  1  0  0  0  0
 36 41  1  0  0  0  0
 36 75  1  0  0  0  0
 37 38  1  0  0  0  0
 37 76  1  0  0  0  0
 37 77  1  0  0  0  0
 38 39  1  0  0  0  0
 38 78  1  0  0  0  0
 38 79  1  0  0  0  0
 39 40  1  0  0  0  0
 39 42  1  0  0  0  0
 40 41  1  0  0  0  0
 40 80  1  0  0  0  0
 40 81  1  0  0  0  0
 41 82  1  0  0  0  0
 41 83  1  0  0  0  0
 43 42  1  1  0  0  0
 42 44  2  0  0  0  0
 43 45  1  0  0  0  0
 43 48  1  0  0  0  0
 43 84  1  0  0  0  0
 45 46  1  0  0  0  0
 45 85  1  0  0  0  0
 45 86  1  0  0  0  0
 46 47  1  0  0  0  0
 46 87  1  0  0  0  0
 46 88  1  0  0  0  0
 47 48  1  0  0  0  0
 47 89  1  0  0  0  0
 47 90  1  0  0  0  0
 48 49  1  0  0  0  0
 49 91  1  0  0  0  0
 49 92  1  0  0  0  0
 49 93  1  0  0  0  0
M  END
> <From>
www.bindingDB.org

> <BindingDB Reactant_set_id>
226253

> <Ligand InChI>
InChI=1S/C35H44ClN7O5S/c1-21(2)48-30-17-23-20-43(24-12-15-42(16-13-24)34(45)29-10-8-14-41(29)5)33(44)25(23)18-28(30)39-35-37-19-26(36)32(40-35)38-27-9-6-7-11-31(27)49(46,47)22(3)4/h6-7,9,11,17-19,21-22,24,29H,8,10,12-16,20H2,1-5H3,(H2,37,38,39,40)/t29-/m0/s1

> <Ligand InChI Key>
OXHQSLVSULVZQB-LJAQVGFWSA-N

> <BindingDB MonomerID>
107040

> <BindingDB Ligand Name>
US8592432, 15

> <Target Name Assigned by Curator or DataSource>
ALK tyrosine kinase receptor

> <Target Source Organism According to Curator or DataSource>
Homo sapiens

> <Ki (nM)>


> <IC50 (nM)>
 23

> <Kd (nM)>


> <EC50 (nM)>


> <kon (M-1-s-1)>


> <koff (s-1)>


> <pH>


> <Temp C>


> <Curation/DataSource>
US Patent

> <Article DOI>


> <PMID>


> <PubChem AID>


> <Patent Number>
US8592432

> <Authors>
Chen, B; Jiang, T; Marsilje, TH; Michellys, P; Nguyen, TN; Pei, W; Wu, B; Gao, Z; Ge, Y; Huang, C; Li, Y; Zhu, X

> <Institution>
TBA

> <Link to Ligand in BindingDB>
http://www.bindingdb.org/bind/chemsearch/marvin/MolStructure.jsp?monomerid=107040

> <Link to Ligand-Target Pair in BindingDB>
http://www.bindingdb.org/jsp/dbsearch/PrimarySearch_ki.jsp?energyterm=kJ/mole&tag=pol&polymerid=5809&target=ALK+tyrosine+kinase+receptor&column=ki&startPg=0&Increment=50&submit=Search

> <Link to Ligand-Target Pair in BindingDB>
http://www.bindingdb.org/jsp/dbsearch/PrimarySearch_ki.jsp?energyterm=kJ/mole&tag=r21&monomerid=107040&enzyme=ALK+tyrosine+kinase+receptor&column=ki&startPg=0&Increment=50&submit=Search

> <Ligand HET ID in PDB>


> <PDB ID(s) for Ligand-Target Complex>


> <PubChem CID>
44467683

> <PubChem SID>
175444487

> <ChEBI ID of Ligand>


> <ChEMBL ID of Ligand>


> <DrugBank ID of Ligand>


> <IUPHAR_GRAC ID of Ligand>


> <KEGG ID of Ligand>


> <ZINC ID of Ligand>


> <Number of Protein Chains in Target (>1 implies a multichain complex)>
1

> <BindingDB Target Chain Sequence>
MGAIGLLWLLPLLLSTAAVGSGMGTGQRAGSPAAGPPLQPREPLSYSRLQRKSLAVDFVVPSLFRVYARDLLLPPSSSELKAGRPEARGSLALDCAPLLRLLGPAPGVSWTAGSPAPAEARTLSRVLKGGSVRKLRRAKQLVLELGEEAILEGCVGPPGEAAVGLLQFNLSELFSWWIRQGEGRLRIRLMPEKKASEVGREGRLSAAIRASQPRLLFQIFGTGHSSLESPTNMPSPSPDYFTWNLTWIMKDSFPFLSHRSRYGLECSFDFPCELEYSPPLHDLRNQSWSWRRIPSEEASQMDLLDGPGAERSKEMPRGSFLLLNTSADSKHTILSPWMRSSSEHCTLAVSVHRHLQPSGRYIAQLLPHNEAAREILLMPTPGKHGWTVLQGRIGRPDNPFRVALEYISSGNRSLSAVDFFALKNCSEGTSPGSKMALQSSFTCWNGTVLQLGQACDFHQDCAQGEDESQMCRKLPVGFYCNFEDGFCGWTQGTLSPHTPQWQVRTLKDARFQDHQDHALLLSTTDVPASESATVTSATFPAPIKSSPCELRMSWLIRGVLRGNVSLVLVENKTGKEQGRMVWHVAAYEGLSLWQWMVLPLLDVSDRFWLQMVAWWGQGSRAIVAFDNISISLDCYLTISGEDKILQNTAPKSRNLFERNPNKELKPGENSPRQTPIFDPTVHWLFTTCGASGPHGPTQAQCNNAYQNSNLSVEVGSEGPLKGIQIWKVPATDTYSISGYGAAGGKGGKNTMMRSHGVSVLGIFNLEKDDMLYILVGQQGEDACPSTNQLIQKVCIGENNVIEEEIRVNRSVHEWAGGGGGGGGATYVFKMKDGVPVPLIIAAGGGGRAYGAKTDTFHPERLENNSSVLGLNGNSGAAGGGGGWNDNTSLLWAGKSLQEGATGGHSCPQAMKKWGWETRGGFGGGGGGCSSGGGGGGYIGGNAASNNDPEMDGEDGVSFISPLGILYTPALKVMEGHGEVNIKHYLNCSHCEVDECHMDPESHKVICFCDHGTVLAEDGVSCIVSPTPEPHLPLSLILSVVTSALVAALVLAFSGIMIVYRRKHQELQAMQMELQSPEYKLSKLRTSTIMTDYNPNYCFAGKTSSISDLKEVPRKNITLIRGLGHGAFGEVYEGQVSGMPNDPSPLQVAVKTLPEVCSEQDELDFLMEALIISKFNHQNIVRCIGVSLQSLPRFILLELMAGGDLKSFLRETRPRPSQPSSLAMLDLLHVARDIACGCQYLEENHFIHRDIAARNCLLTCPGPGRVAKIGDFGMARDIYRASYYRKGGCAMLPVKWMPPEAFMEGIFTSKTDTWSFGVLLWEIFSLGYMPYPSKSNQEVLEFVTSGGRMDPPKNCPGPVYRIMTQCWQHQPEDRPNFAIILERIEYCTQDPDVINTALPIEYGPLVEEEEKVPVRPKDPEGVPPLLVSQQAKREEERSPAAPPPLPTTSSGKAAKKPTAAEISVRVPRGPAVEGGHVNMAFSQSNPPSELHKVHGSRNKPTSLWNPTYGSWFTEKPTKKNNPIAKKEPHDRGNLGLEGSCTVPPNVATGRLPGASLLLEPSSLTANMKEVPLFRLRHFPCGNVNYGYQQQGLPLEAATAPGAGHYEDTILKSKNSMNQPGP

> <PDB ID(s) of Target Chain>
2XB7,2XBA,3AOX,5FTO,5FTQ,6E0R,6EBW,6EDL,6MX8

> <UniProt (SwissProt) Recommended Name of Target Chain>
ALK tyrosine kinase receptor

> <UniProt (SwissProt) Entry Name of Target Chain>
ALK_HUMAN

> <UniProt (SwissProt) Primary ID of Target Chain>
Q9UM73

> <UniProt (SwissProt) Secondary ID(s) of Target Chain>
Q4ZFX9,Q53QQ6,Q53RZ4,Q59FI3,Q9Y4K6

> <UniProt (SwissProt) Alternative ID(s) of Target Chain>


> <UniProt (TrEMBL) Submitted Name of Target Chain>


> <UniProt (TrEMBL) Entry Name of Target Chain>


> <UniProt (TrEMBL) Primary ID of Target Chain>


> <UniProt (TrEMBL) Secondary ID(s) of Target Chain>


> <UniProt (TrEMBL) Alternative ID(s) of Target Chain>


$$$$
00106001.cdx

Vconf v2.0 Academic SN VC001-00000579
 87 92  0  0  0  0  0  0  0  0999 V2000
   -2.4710    2.5480    1.2520 C   0  0  0  0  0  0  0  0  0  0  0
   -3.6680    2.1460    0.6070 C   0  0  0  0  0  0  0  0  0  0  0
   -4.2460    0.8950    0.9000 C   0  0  0  0  0  0  0  0  0  0  0
   -3.6410    0.0210    1.8130 C   0  0  0  0  0  0  0  0  0  0  0
   -2.4480    0.3960    2.4440 C   0  0  0  0  0  0  0  0  0  0  0
   -1.8710    1.6430    2.1620 C   0  0  0  0  0  0  0  0  0  0  0
   -4.5140    3.1720   -0.5230 S   0  0  0  0  0  0  0  0  0  0  0
   -5.5700    4.3140    0.4000 C   0  0  0  0  0  0  0  0  0  0  0
   -6.5640    3.5450    1.2840 C   0  0  0  0  0  0  0  0  0  0  0
   -4.7400    5.2820    1.2560 C   0  0  0  0  0  0  0  0  0  0  0
   -3.5090    4.1000   -1.3340 O   0  0  0  0  0  0  0  0  0  0  0
   -5.5670    2.2880   -1.3230 O   0  0  0  0  0  0  0  0  0  0  0
   -1.9620    3.7830    0.9400 N   0  0  0  0  0  0  0  0  0  0  0
   -0.9560    4.4950    1.5320 C   0  0  0  0  0  0  0  0  0  0  0
   -0.3910    4.0870    2.6920 N   0  0  0  0  0  0  0  0  0  0  0
    0.5830    4.7580    3.3510 C   0  0  0  0  0  0  0  0  0  0  0
    1.0320    5.9120    2.8090 N   0  0  0  0  0  0  0  0  0  0  0
    0.5180    6.3990    1.6530 C   0  0  0  0  0  0  0  0  0  0  0
   -0.5050    5.7110    0.9770 C   0  0  0  0  0  0  0  0  0  0  0
   -1.1270    6.3520   -0.4630 Cl  0  0  0  0  0  0  0  0  0  0  0
    1.0980    4.3040    4.5240 N   0  0  0  0  0  0  0  0  0  0  0
    0.6750    3.1760    5.1590 C   0  0  0  0  0  0  0  0  0  0  0
   -0.7060    2.9410    5.3530 C   0  0  0  0  0  0  0  0  0  0  0
   -1.1130    1.7150    5.8900 C   0  0  0  0  0  0  0  0  0  0  0
   -0.1970    0.7500    6.2770 C   0  0  0  0  0  0  0  0  0  0  0
    1.1820    0.9940    6.1590 C   0  0  0  0  0  0  0  0  0  0  0
    1.6240    2.2200    5.5990 C   0  0  0  0  0  0  0  0  0  0  0
    2.9440    2.5210    5.4100 O   0  0  0  0  0  0  0  0  0  0  0
    4.0300    1.7890    5.9920 C   0  0  0  0  0  0  0  0  0  0  0
    5.3240    2.2870    5.3360 C   0  0  0  0  0  0  0  0  0  0  0
   -2.3780    1.1960    6.0600 C   0  0  0  0  0  0  0  0  0  0  0
   -2.2680   -0.0780    6.5120 N   0  0  0  0  0  0  0  0  0  0  0
   -0.9030   -0.4530    6.7260 C   0  0  0  0  0  0  0  0  0  0  0
    4.1040    2.0170    7.5110 C   0  0  0  0  0  0  0  0  0  0  0
   -3.3600   -0.9820    6.6860 C   0  0  0  0  0  0  0  0  0  0  0
   -4.3650   -0.4510    7.7320 C   0  0  0  0  0  0  0  0  0  0  0
   -5.6400   -1.3080    7.7630 C   0  0  0  0  0  0  0  0  0  0  0
   -6.1680   -1.3580    6.4360 N   0  0  0  0  0  0  0  0  0  0  0
   -5.3440   -2.0390    5.4900 C   0  0  0  0  0  0  0  0  0  0  0
   -4.0390   -1.2500    5.3240 C   0  0  0  0  0  0  0  0  0  0  0
   -3.4390    1.7810    5.7460 O   0  0  0  0  0  0  0  0  0  0  0
   -7.3150   -0.6970    6.0960 C   0  0  0  0  0  0  0  0  0  0  0
   -7.9930   -0.1270    6.9810 O   0  0  0  0  0  0  0  0  0  0  0
   -7.7630   -0.5550    4.7000 C   0  0  0  0  0  0  0  0  0  0  0
   -8.8610    0.4540    4.3480 C   0  0  0  0  0  0  0  0  0  0  0
   -8.0520    0.9940    3.2500 N   0  0  0  0  0  0  0  0  0  0  0
   -6.8820    0.2660    3.7530 C   0  0  0  0  0  0  0  0  0  0  0
   -5.1170    0.6180    0.4470 H   0  0  0  0  0  0  0  0  0  0  0
   -4.0650   -0.8840    2.0180 H   0  0  0  0  0  0  0  0  0  0  0
   -1.9980   -0.2380    3.1050 H   0  0  0  0  0  0  0  0  0  0  0
   -0.9900    1.8620    2.6180 H   0  0  0  0  0  0  0  0  0  0  0
   -6.1360    4.9010   -0.3240 H   0  0  0  0  0  0  0  0  0  0  0
   -7.2410    4.2460    1.7730 H   0  0  0  0  0  0  0  0  0  0  0
   -7.1450    2.8590    0.6680 H   0  0  0  0  0  0  0  0  0  0  0
   -6.0280    2.9770    2.0440 H   0  0  0  0  0  0  0  0  0  0  0
   -5.3970    6.0250    1.7090 H   0  0  0  0  0  0  0  0  0  0  0
   -4.2220    4.7370    2.0450 H   0  0  0  0  0  0  0  0  0  0  0
   -4.0090    5.7910    0.6280 H   0  0  0  0  0  0  0  0  0  0  0
   -2.3870    4.2330    0.1970 H   0  0  0  0  0  0  0  0  0  0  0
    0.8840    7.2770    1.2820 H   0  0  0  0  0  0  0  0  0  0  0
    1.8460    4.7880    4.9070 H   0  0  0  0  0  0  0  0  0  0  0
   -1.4020    3.6270    5.0560 H   0  0  0  0  0  0  0  0  0  0  0
    1.8490    0.2800    6.4480 H   0  0  0  0  0  0  0  0  0  0  0
    3.9330    0.7230    5.7810 H   0  0  0  0  0  0  0  0  0  0  0
    6.1780    1.7440    5.7420 H   0  0  0  0  0  0  0  0  0  0  0
    5.2720    2.1190    4.2610 H   0  0  0  0  0  0  0  0  0  0  0
    5.4490    3.3530    5.5270 H   0  0  0  0  0  0  0  0  0  0  0
   -0.7100   -0.6570    7.7800 H   0  0  0  0  0  0  0  0  0  0  0
   -0.6350   -1.3110    6.1080 H   0  0  0  0  0  0  0  0  0  0  0
    4.9700    1.4950    7.9190 H   0  0  0  0  0  0  0  0  0  0  0
    4.1960    3.0830    7.7180 H   0  0  0  0  0  0  0  0  0  0  0
    3.2040    1.6360    7.9920 H   0  0  0  0  0  0  0  0  0  0  0
   -2.9770   -1.9360    7.0540 H   0  0  0  0  0  0  0  0  0  0  0
   -4.6530    0.5730    7.4930 H   0  0  0  0  0  0  0  0  0  0  0
   -3.8990   -0.4620    8.7170 H   0  0  0  0  0  0  0  0  0  0  0
   -5.3960   -2.3170    8.1010 H   0  0  0  0  0  0  0  0  0  0  0
   -6.3380   -0.8660    8.4760 H   0  0  0  0  0  0  0  0  0  0  0
   -5.1160   -3.0390    5.8620 H   0  0  0  0  0  0  0  0  0  0  0
   -5.8160   -2.1450    4.5140 H   0  0  0  0  0  0  0  0  0  0  0
   -4.2780   -0.3090    4.8300 H   0  0  0  0  0  0  0  0  0  0  0
   -3.3570   -1.8140    4.6860 H   0  0  0  0  0  0  0  0  0  0  0
   -7.9890   -1.5550    4.3270 H   0  0  0  0  0  0  0  0  0  0  0
   -9.8190    0.0260    4.0540 H   0  0  0  0  0  0  0  0  0  0  0
   -9.0710    1.1990    5.1180 H   0  0  0  0  0  0  0  0  0  0  0
   -8.3570    0.5800    2.3660 H   0  0  0  0  0  0  0  0  0  0  0
   -6.3350   -0.3050    3.0040 H   0  0  0  0  0  0  0  0  0  0  0
   -6.1600    0.9230    4.2430 H   0  0  0  0  0  0  0  0  0  0  0
  1  2  2  0  0  0  0
  1  6  1  0  0  0  0
  1 13  1  0  0  0  0
  2  3  1  0  0  0  0
  2  7  1  0  0  0  0
  3  4  2  0  0  0  0
  3 48  1  0  0  0  0
  4  5  1  0  0  0  0
  4 49  1  0  0  0  0
  5  6  2  0  0  0  0
  5 50  1  0  0  0  0
  6 51  1  0  0  0  0
  7  8  1  0  0  0  0
  7 11  2  0  0  0  0
  7 12  2  0  0  0  0
  8  9  1  0  0  0  0
  8 10  1  0  0  0  0
  8 52  1  0  0  0  0
  9 53  1  0  0  0  0
  9 54  1  0  0  0  0
  9 55  1  0  0  0  0
 10 56  1  0  0  0  0
 10 57  1  0  0  0  0
 10 58  1  0  0  0  0
 13 14  1  0  0  0  0
 13 59  1  0  0  0  0
 14 15  2  0  0  0  0
 14 19  1  0  0  0  0
 15 16  1  0  0  0  0
 16 17  2  0  0  0  0
 16 21  1  0  0  0  0
 17 18  1  0  0  0  0
 18 19  2  0  0  0  0
 18 60  1  0  0  0  0
 19 20  1  0  0  0  0
 21 22  1  0  0  0  0
 21 61  1  0  0  0  0
 22 23  2  0  0  0  0
 22 27  1  0  0  0  0
 23 24  1  0  0  0  0
 23 62  1  0  0  0  0
 24 25  2  0  0  0  0
 24 31  1  0  0  0  0
 25 26  1  0  0  0  0
 25 33  1  0  0  0  0
 26 27  2  0  0  0  0
 26 63  1  0  0  0  0
 27 28  1  0  0  0  0
 28 29  1  0  0  0  0
 29 30  1  0  0  0  0
 29 34  1  0  0  0  0
 29 64  1  0  0  0  0
 30 65  1  0  0  0  0
 30 66  1  0  0  0  0
 30 67  1  0  0  0  0
 31 32  1  0  0  0  0
 31 41  2  0  0  0  0
 32 33  1  0  0  0  0
 32 35  1  0  0  0  0
 33 68  1  0  0  0  0
 33 69  1  0  0  0  0
 34 70  1  0  0  0  0
 34 71  1  0  0  0  0
 34 72  1  0  0  0  0
 35 36  1  0  0  0  0
 35 40  1  0  0  0  0
 35 73  1  0  0  0  0
 36 37  1  0  0  0  0
 36 74  1  0  0  0  0
 36 75  1  0  0  0  0
 37 38  1  0  0  0  0
 37 76  1  0  0  0  0
 37 77  1  0  0  0  0
 38 39  1  0  0  0  0
 38 42  1  0  0  0  0
 39 40  1  0  0  0  0
 39 78  1  0  0  0  0
 39 79  1  0  0  0  0
 40 80  1  0  0  0  0
 40 81  1  0  0  0  0
 42 43  2  0  0  0  0
 42 44  1  0  0  0  0
 44 45  1  0  0  0  0
 44 47  1  0  0  0  0
 44 82  1  0  0  0  0
 45 46  1  0  0  0  0
 45 83  1  0  0  0  0
 45 84  1  0  0  0  0
 46 47  1  0  0  0  0
 46 85  1  0  0  0  0
 47 86  1  0  0  0  0
 47 87  1  0  0  0  0
M  END
> <From>
www.bindingDB.org

> <BindingDB Reactant_set_id>
226254

> <Ligand InChI>
InChI=1S/C33H40ClN7O5S/c1-19(2)46-28-13-21-18-41(23-9-11-40(12-10-23)31(42)22-15-35-16-22)32(43)24(21)14-27(28)38-33-36-17-25(34)30(39-33)37-26-7-5-6-8-29(26)47(44,45)20(3)4/h5-8,13-14,17,19-20,22-23,35H,9-12,15-16,18H2,1-4H3,(H2,36,37,38,39)

> <Ligand InChI Key>
MRULZHINUDBMLR-UHFFFAOYSA-N

> <BindingDB MonomerID>
107041

> <BindingDB Ligand Name>
US8592432, 16

> <Target Name Assigned by Curator or DataSource>
ALK tyrosine kinase receptor

> <Target Source Organism According to Curator or DataSource>
Homo sapiens

> <Ki (nM)>


> <IC50 (nM)>
 87

> <Kd (nM)>


> <EC50 (nM)>


> <kon (M-1-s-1)>


> <koff (s-1)>


> <pH>


> <Temp C>


> <Curation/DataSource>
US Patent

> <Article DOI>


> <PMID>


> <PubChem AID>


> <Patent Number>
US8592432

> <Authors>
Chen, B; Jiang, T; Marsilje, TH; Michellys, P; Nguyen, TN; Pei, W; Wu, B; Gao, Z; Ge, Y; Huang, C; Li, Y; Zhu, X

> <Institution>
TBA

> <Link to Ligand in BindingDB>
http://www.bindingdb.org/bind/chemsearch/marvin/MolStructure.jsp?monomerid=107041

> <Link to Ligand-Target Pair in BindingDB>
http://www.bindingdb.org/jsp/dbsearch/PrimarySearch_ki.jsp?energyterm=kJ/mole&tag=pol&polymerid=5809&target=ALK+tyrosine+kinase+receptor&column=ki&startPg=0&Increment=50&submit=Search

> <Link to Ligand-Target Pair in BindingDB>
http://www.bindingdb.org/jsp/dbsearch/PrimarySearch_ki.jsp?energyterm=kJ/mole&tag=r21&monomerid=107041&enzyme=ALK+tyrosine+kinase+receptor&column=ki&startPg=0&Increment=50&submit=Search

> <Ligand HET ID in PDB>


> <PDB ID(s) for Ligand-Target Complex>


> <PubChem CID>
44467684

> <PubChem SID>
175444488

> <ChEBI ID of Ligand>


> <ChEMBL ID of Ligand>


> <DrugBank ID of Ligand>


> <IUPHAR_GRAC ID of Ligand>


> <KEGG ID of Ligand>


> <ZINC ID of Ligand>
ZINC96177897

> <Number of Protein Chains in Target (>1 implies a multichain complex)>
1

> <BindingDB Target Chain Sequence>
MGAIGLLWLLPLLLSTAAVGSGMGTGQRAGSPAAGPPLQPREPLSYSRLQRKSLAVDFVVPSLFRVYARDLLLPPSSSELKAGRPEARGSLALDCAPLLRLLGPAPGVSWTAGSPAPAEARTLSRVLKGGSVRKLRRAKQLVLELGEEAILEGCVGPPGEAAVGLLQFNLSELFSWWIRQGEGRLRIRLMPEKKASEVGREGRLSAAIRASQPRLLFQIFGTGHSSLESPTNMPSPSPDYFTWNLTWIMKDSFPFLSHRSRYGLECSFDFPCELEYSPPLHDLRNQSWSWRRIPSEEASQMDLLDGPGAERSKEMPRGSFLLLNTSADSKHTILSPWMRSSSEHCTLAVSVHRHLQPSGRYIAQLLPHNEAAREILLMPTPGKHGWTVLQGRIGRPDNPFRVALEYISSGNRSLSAVDFFALKNCSEGTSPGSKMALQSSFTCWNGTVLQLGQACDFHQDCAQGEDESQMCRKLPVGFYCNFEDGFCGWTQGTLSPHTPQWQVRTLKDARFQDHQDHALLLSTTDVPASESATVTSATFPAPIKSSPCELRMSWLIRGVLRGNVSLVLVENKTGKEQGRMVWHVAAYEGLSLWQWMVLPLLDVSDRFWLQMVAWWGQGSRAIVAFDNISISLDCYLTISGEDKILQNTAPKSRNLFERNPNKELKPGENSPRQTPIFDPTVHWLFTTCGASGPHGPTQAQCNNAYQNSNLSVEVGSEGPLKGIQIWKVPATDTYSISGYGAAGGKGGKNTMMRSHGVSVLGIFNLEKDDMLYILVGQQGEDACPSTNQLIQKVCIGENNVIEEEIRVNRSVHEWAGGGGGGGGATYVFKMKDGVPVPLIIAAGGGGRAYGAKTDTFHPERLENNSSVLGLNGNSGAAGGGGGWNDNTSLLWAGKSLQEGATGGHSCPQAMKKWGWETRGGFGGGGGGCSSGGGGGGYIGGNAASNNDPEMDGEDGVSFISPLGILYTPALKVMEGHGEVNIKHYLNCSHCEVDECHMDPESHKVICFCDHGTVLAEDGVSCIVSPTPEPHLPLSLILSVVTSALVAALVLAFSGIMIVYRRKHQELQAMQMELQSPEYKLSKLRTSTIMTDYNPNYCFAGKTSSISDLKEVPRKNITLIRGLGHGAFGEVYEGQVSGMPNDPSPLQVAVKTLPEVCSEQDELDFLMEALIISKFNHQNIVRCIGVSLQSLPRFILLELMAGGDLKSFLRETRPRPSQPSSLAMLDLLHVARDIACGCQYLEENHFIHRDIAARNCLLTCPGPGRVAKIGDFGMARDIYRASYYRKGGCAMLPVKWMPPEAFMEGIFTSKTDTWSFGVLLWEIFSLGYMPYPSKSNQEVLEFVTSGGRMDPPKNCPGPVYRIMTQCWQHQPEDRPNFAIILERIEYCTQDPDVINTALPIEYGPLVEEEEKVPVRPKDPEGVPPLLVSQQAKREEERSPAAPPPLPTTSSGKAAKKPTAAEISVRVPRGPAVEGGHVNMAFSQSNPPSELHKVHGSRNKPTSLWNPTYGSWFTEKPTKKNNPIAKKEPHDRGNLGLEGSCTVPPNVATGRLPGASLLLEPSSLTANMKEVPLFRLRHFPCGNVNYGYQQQGLPLEAATAPGAGHYEDTILKSKNSMNQPGP

> <PDB ID(s) of Target Chain>
2XB7,2XBA,3AOX,5FTO,5FTQ,6E0R,6EBW,6EDL,6MX8

> <UniProt (SwissProt) Recommended Name of Target Chain>
ALK tyrosine kinase receptor

> <UniProt (SwissProt) Entry Name of Target Chain>
ALK_HUMAN

> <UniProt (SwissProt) Primary ID of Target Chain>
Q9UM73

> <UniProt (SwissProt) Secondary ID(s) of Target Chain>
Q4ZFX9,Q53QQ6,Q53RZ4,Q59FI3,Q9Y4K6

> <UniProt (SwissProt) Alternative ID(s) of Target Chain>


> <UniProt (TrEMBL) Submitted Name of Target Chain>


> <UniProt (TrEMBL) Entry Name of Target Chain>


> <UniProt (TrEMBL) Primary ID of Target Chain>


> <UniProt (TrEMBL) Secondary ID(s) of Target Chain>


> <UniProt (TrEMBL) Alternative ID(s) of Target Chain>


$$$$
00107001.cdx

Vconf v2.0 Academic SN VC001-00000579
 90 95  0  0  0  0  0  0  0  0999 V2000
   -1.9860    2.8920    0.9560 C   0  0  0  0  0  0  0  0  0  0  0
   -2.8710    2.6080   -0.1130 C   0  0  0  0  0  0  0  0  0  0  0
   -3.6820    1.4560   -0.0770 C   0  0  0  0  0  0  0  0  0  0  0
   -3.6170    0.5680    1.0050 C   0  0  0  0  0  0  0  0  0  0  0
   -2.7360    0.8260    2.0620 C   0  0  0  0  0  0  0  0  0  0  0
   -1.9270    1.9730    2.0350 C   0  0  0  0  0  0  0  0  0  0  0
   -3.0540    3.6640   -1.4900 S   0  0  0  0  0  0  0  0  0  0  0
   -4.2310    4.9710   -1.0660 C   0  0  0  0  0  0  0  0  0  0  0
   -5.5810    4.3760   -0.6360 C   0  0  0  0  0  0  0  0  0  0  0
   -3.6850    5.8840    0.0400 C   0  0  0  0  0  0  0  0  0  0  0
   -1.6940    4.4160   -1.8340 O   0  0  0  0  0  0  0  0  0  0  0
   -3.8070    2.8750   -2.6460 O   0  0  0  0  0  0  0  0  0  0  0
   -1.2390    4.0380    0.8650 N   0  0  0  0  0  0  0  0  0  0  0
   -0.4220    4.6380    1.7820 C   0  0  0  0  0  0  0  0  0  0  0
   -0.3300    4.1770    3.0510 N   0  0  0  0  0  0  0  0  0  0  0
    0.4410    4.7400    4.0110 C   0  0  0  0  0  0  0  0  0  0  0
    1.1710    5.8290    3.6850 N   0  0  0  0  0  0  0  0  0  0  0
    1.1340    6.3590    2.4390 C   0  0  0  0  0  0  0  0  0  0  0
    0.3270    5.7830    1.4400 C   0  0  0  0  0  0  0  0  0  0  0
    0.3120    6.4750   -0.1070 Cl  0  0  0  0  0  0  0  0  0  0  0
    0.4940    4.2410    5.2680 N   0  0  0  0  0  0  0  0  0  0  0
   -0.2130    3.1580    5.6770 C   0  0  0  0  0  0  0  0  0  0  0
    0.5060    2.0130    6.0830 C   0  0  0  0  0  0  0  0  0  0  0
   -0.2110    0.8520    6.4150 C   0  0  0  0  0  0  0  0  0  0  0
   -1.5980    0.8220    6.3720 C   0  0  0  0  0  0  0  0  0  0  0
   -2.3310    1.9600    6.0000 C   0  0  0  0  0  0  0  0  0  0  0
   -1.6340    3.1350    5.6590 C   0  0  0  0  0  0  0  0  0  0  0
   -2.3720    4.2020    5.2430 O   0  0  0  0  0  0  0  0  0  0  0
   -2.3700    5.4300    5.9790 C   0  0  0  0  0  0  0  0  0  0  0
   -3.0330    6.4960    5.1000 C   0  0  0  0  0  0  0  0  0  0  0
    0.2220   -0.4120    6.7760 C   0  0  0  0  0  0  0  0  0  0  0
   -0.8630   -1.2110    6.9440 N   0  0  0  0  0  0  0  0  0  0  0
   -2.0880   -0.5090    6.7260 C   0  0  0  0  0  0  0  0  0  0  0
   -3.1520    5.2750    7.2920 C   0  0  0  0  0  0  0  0  0  0  0
   -0.8410   -2.6010    7.2640 C   0  0  0  0  0  0  0  0  0  0  0
   -0.1370   -3.4210    6.1670 C   0  0  0  0  0  0  0  0  0  0  0
   -0.1380   -4.9100    6.5450 C   0  0  0  0  0  0  0  0  0  0  0
    0.4700   -5.0770    7.8310 N   0  0  0  0  0  0  0  0  0  0  0
   -0.1690   -4.3850    8.9100 C   0  0  0  0  0  0  0  0  0  0  0
   -0.1760   -2.8740    8.6260 C   0  0  0  0  0  0  0  0  0  0  0
    1.4170   -0.7610    6.8910 O   0  0  0  0  0  0  0  0  0  0  0
    1.5910   -5.8450    7.9960 C   0  0  0  0  0  0  0  0  0  0  0
    2.1000   -6.4250    7.0100 O   0  0  0  0  0  0  0  0  0  0  0
    2.2540   -6.0130    9.3000 C   0  0  0  0  0  0  0  0  0  0  0
    3.6200   -6.7060    9.3630 C   0  0  0  0  0  0  0  0  0  0  0
    4.2870   -5.4330    9.6770 N   0  0  0  0  0  0  0  0  0  0  0
    2.9810   -4.7810    9.8480 C   0  0  0  0  0  0  0  0  0  0  0
    5.1070   -4.8900    8.5850 C   0  0  0  0  0  0  0  0  0  0  0
   -4.3310    1.2680   -0.8410 H   0  0  0  0  0  0  0  0  0  0  0
   -4.2090   -0.2630    1.0210 H   0  0  0  0  0  0  0  0  0  0  0
   -2.6800    0.1810    2.8520 H   0  0  0  0  0  0  0  0  0  0  0
   -1.2890    2.1100    2.8130 H   0  0  0  0  0  0  0  0  0  0  0
   -4.3900    5.5740   -1.9600 H   0  0  0  0  0  0  0  0  0  0  0
   -6.2980    5.1780   -0.4630 H   0  0  0  0  0  0  0  0  0  0  0
   -5.9590    3.7230   -1.4230 H   0  0  0  0  0  0  0  0  0  0  0
   -5.4600    3.8000    0.2810 H   0  0  0  0  0  0  0  0  0  0  0
   -4.3690    6.7180    0.1990 H   0  0  0  0  0  0  0  0  0  0  0
   -3.5800    5.3270    0.9710 H   0  0  0  0  0  0  0  0  0  0  0
   -2.7130    6.2740   -0.2600 H   0  0  0  0  0  0  0  0  0  0  0
   -1.3080    4.5110    0.0240 H   0  0  0  0  0  0  0  0  0  0  0
    1.7010    7.1830    2.2360 H   0  0  0  0  0  0  0  0  0  0  0
    1.1050    4.6560    5.8950 H   0  0  0  0  0  0  0  0  0  0  0
    1.5270    2.0150    6.0980 H   0  0  0  0  0  0  0  0  0  0  0
   -3.3500    1.9320    5.9630 H   0  0  0  0  0  0  0  0  0  0  0
   -1.3520    5.7540    6.2020 H   0  0  0  0  0  0  0  0  0  0  0
   -3.0400    7.4540    5.6210 H   0  0  0  0  0  0  0  0  0  0  0
   -2.4720    6.5980    4.1710 H   0  0  0  0  0  0  0  0  0  0  0
   -4.0570    6.2020    4.8690 H   0  0  0  0  0  0  0  0  0  0  0
   -2.6510   -0.9500    5.9020 H   0  0  0  0  0  0  0  0  0  0  0
   -2.6910   -0.4770    7.6350 H   0  0  0  0  0  0  0  0  0  0  0
   -3.1980    6.2340    7.8090 H   0  0  0  0  0  0  0  0  0  0  0
   -4.1650    4.9320    7.0770 H   0  0  0  0  0  0  0  0  0  0  0
   -2.6550    4.5470    7.9340 H   0  0  0  0  0  0  0  0  0  0  0
   -1.8720   -2.9540    7.3260 H   0  0  0  0  0  0  0  0  0  0  0
    0.8950   -3.0870    6.0520 H   0  0  0  0  0  0  0  0  0  0  0
   -0.6630   -3.2880    5.2200 H   0  0  0  0  0  0  0  0  0  0  0
   -1.1690   -5.2660    6.5860 H   0  0  0  0  0  0  0  0  0  0  0
    0.3790   -5.4620    5.7580 H   0  0  0  0  0  0  0  0  0  0  0
   -1.2000   -4.7340    8.9920 H   0  0  0  0  0  0  0  0  0  0  0
    0.3160   -4.5480    9.8720 H   0  0  0  0  0  0  0  0  0  0  0
    0.8510   -2.5100    8.6230 H   0  0  0  0  0  0  0  0  0  0  0
   -0.7340   -2.3620    9.4110 H   0  0  0  0  0  0  0  0  0  0  0
    1.5240   -6.4560    9.9770 H   0  0  0  0  0  0  0  0  0  0  0
    3.9580   -7.2290    8.4670 H   0  0  0  0  0  0  0  0  0  0  0
    3.6940   -7.4270   10.1770 H   0  0  0  0  0  0  0  0  0  0  0
    2.7470   -4.5770   10.8930 H   0  0  0  0  0  0  0  0  0  0  0
    2.8320   -3.8400    9.3150 H   0  0  0  0  0  0  0  0  0  0  0
    5.4370   -3.8840    8.8430 H   0  0  0  0  0  0  0  0  0  0  0
    5.9820   -5.5240    8.4390 H   0  0  0  0  0  0  0  0  0  0  0
    4.5330   -4.8530    7.6570 H   0  0  0  0  0  0  0  0  0  0  0
  1  2  2  0  0  0  0
  1  6  1  0  0  0  0
  1 13  1  0  0  0  0
  2  3  1  0  0  0  0
  2  7  1  0  0  0  0
  3  4  2  0  0  0  0
  3 49  1  0  0  0  0
  4  5  1  0  0  0  0
  4 50  1  0  0  0  0
  5  6  2  0  0  0  0
  5 51  1  0  0  0  0
  6 52  1  0  0  0  0
  7  8  1  0  0  0  0
  7 11  2  0  0  0  0
  7 12  2  0  0  0  0
  8  9  1  0  0  0  0
  8 10  1  0  0  0  0
  8 53  1  0  0  0  0
  9 54  1  0  0  0  0
  9 55  1  0  0  0  0
  9 56  1  0  0  0  0
 10 57  1  0  0  0  0
 10 58  1  0  0  0  0
 10 59  1  0  0  0  0
 13 14  1  0  0  0  0
 13 60  1  0  0  0  0
 14 15  2  0  0  0  0
 14 19  1  0  0  0  0
 15 16  1  0  0  0  0
 16 17  2  0  0  0  0
 16 21  1  0  0  0  0
 17 18  1  0  0  0  0
 18 19  2  0  0  0  0
 18 61  1  0  0  0  0
 19 20  1  0  0  0  0
 21 22  1  0  0  0  0
 21 62  1  0  0  0  0
 22 23  2  0  0  0  0
 22 27  1  0  0  0  0
 23 24  1  0  0  0  0
 23 63  1  0  0  0  0
 24 25  2  0  0  0  0
 24 31  1  0  0  0  0
 25 26  1  0  0  0  0
 25 33  1  0  0  0  0
 26 27  2  0  0  0  0
 26 64  1  0  0  0  0
 27 28  1  0  0  0  0
 28 29  1  0  0  0  0
 29 30  1  0  0  0  0
 29 34  1  0  0  0  0
 29 65  1  0  0  0  0
 30 66  1  0  0  0  0
 30 67  1  0  0  0  0
 30 68  1  0  0  0  0
 31 32  1  0  0  0  0
 31 41  2  0  0  0  0
 32 33  1  0  0  0  0
 32 35  1  0  0  0  0
 33 69  1  0  0  0  0
 33 70  1  0  0  0  0
 34 71  1  0  0  0  0
 34 72  1  0  0  0  0
 34 73  1  0  0  0  0
 35 36  1  0  0  0  0
 35 40  1  0  0  0  0
 35 74  1  0  0  0  0
 36 37  1  0  0  0  0
 36 75  1  0  0  0  0
 36 76  1  0  0  0  0
 37 38  1  0  0  0  0
 37 77  1  0  0  0  0
 37 78  1  0  0  0  0
 38 39  1  0  0  0  0
 38 42  1  0  0  0  0
 39 40  1  0  0  0  0
 39 79  1  0  0  0  0
 39 80  1  0  0  0  0
 40 81  1  0  0  0  0
 40 82  1  0  0  0  0
 42 43  2  0  0  0  0
 42 44  1  0  0  0  0
 44 45  1  0  0  0  0
 44 47  1  0  0  0  0
 44 83  1  0  0  0  0
 45 46  1  0  0  0  0
 45 84  1  0  0  0  0
 45 85  1  0  0  0  0
 46 47  1  0  0  0  0
 46 48  1  0  0  0  0
 47 86  1  0  0  0  0
 47 87  1  0  0  0  0
 48 88  1  0  0  0  0
 48 89  1  0  0  0  0
 48 90  1  0  0  0  0
M  END
> <From>
www.bindingDB.org

> <BindingDB Reactant_set_id>
226255

> <Ligand InChI>
InChI=1S/C34H42ClN7O5S/c1-20(2)47-29-14-22-19-42(24-10-12-41(13-11-24)32(43)23-17-40(5)18-23)33(44)25(22)15-28(29)38-34-36-16-26(35)31(39-34)37-27-8-6-7-9-30(27)48(45,46)21(3)4/h6-9,14-16,20-21,23-24H,10-13,17-19H2,1-5H3,(H2,36,37,38,39)

> <Ligand InChI Key>
PKNIWALQPVKUCD-UHFFFAOYSA-N

> <BindingDB MonomerID>
107042

> <BindingDB Ligand Name>
US8592432, 17

> <Target Name Assigned by Curator or DataSource>
ALK tyrosine kinase receptor

> <Target Source Organism According to Curator or DataSource>
Homo sapiens

> <Ki (nM)>


> <IC50 (nM)>
 12

> <Kd (nM)>


> <EC50 (nM)>


> <kon (M-1-s-1)>


> <koff (s-1)>


> <pH>


> <Temp C>


> <Curation/DataSource>
US Patent

> <Article DOI>


> <PMID>


> <PubChem AID>


> <Patent Number>
US8592432

> <Authors>
Chen, B; Jiang, T; Marsilje, TH; Michellys, P; Nguyen, TN; Pei, W; Wu, B; Gao, Z; Ge, Y; Huang, C; Li, Y; Zhu, X

> <Institution>
TBA

> <Link to Ligand in BindingDB>
http://www.bindingdb.org/bind/chemsearch/marvin/MolStructure.jsp?monomerid=107042

> <Link to Ligand-Target Pair in BindingDB>
http://www.bindingdb.org/jsp/dbsearch/PrimarySearch_ki.jsp?energyterm=kJ/mole&tag=pol&polymerid=5809&target=ALK+tyrosine+kinase+receptor&column=ki&startPg=0&Increment=50&submit=Search

> <Link to Ligand-Target Pair in BindingDB>
http://www.bindingdb.org/jsp/dbsearch/PrimarySearch_ki.jsp?energyterm=kJ/mole&tag=r21&monomerid=107042&enzyme=ALK+tyrosine+kinase+receptor&column=ki&startPg=0&Increment=50&submit=Search

> <Ligand HET ID in PDB>


> <PDB ID(s) for Ligand-Target Complex>


> <PubChem CID>
44467685

> <PubChem SID>
175444489

> <ChEBI ID of Ligand>


> <ChEMBL ID of Ligand>


> <DrugBank ID of Ligand>


> <IUPHAR_GRAC ID of Ligand>


> <KEGG ID of Ligand>


> <ZINC ID of Ligand>
ZINC96177898

> <Number of Protein Chains in Target (>1 implies a multichain complex)>
1

> <BindingDB Target Chain Sequence>
MGAIGLLWLLPLLLSTAAVGSGMGTGQRAGSPAAGPPLQPREPLSYSRLQRKSLAVDFVVPSLFRVYARDLLLPPSSSELKAGRPEARGSLALDCAPLLRLLGPAPGVSWTAGSPAPAEARTLSRVLKGGSVRKLRRAKQLVLELGEEAILEGCVGPPGEAAVGLLQFNLSELFSWWIRQGEGRLRIRLMPEKKASEVGREGRLSAAIRASQPRLLFQIFGTGHSSLESPTNMPSPSPDYFTWNLTWIMKDSFPFLSHRSRYGLECSFDFPCELEYSPPLHDLRNQSWSWRRIPSEEASQMDLLDGPGAERSKEMPRGSFLLLNTSADSKHTILSPWMRSSSEHCTLAVSVHRHLQPSGRYIAQLLPHNEAAREILLMPTPGKHGWTVLQGRIGRPDNPFRVALEYISSGNRSLSAVDFFALKNCSEGTSPGSKMALQSSFTCWNGTVLQLGQACDFHQDCAQGEDESQMCRKLPVGFYCNFEDGFCGWTQGTLSPHTPQWQVRTLKDARFQDHQDHALLLSTTDVPASESATVTSATFPAPIKSSPCELRMSWLIRGVLRGNVSLVLVENKTGKEQGRMVWHVAAYEGLSLWQWMVLPLLDVSDRFWLQMVAWWGQGSRAIVAFDNISISLDCYLTISGEDKILQNTAPKSRNLFERNPNKELKPGENSPRQTPIFDPTVHWLFTTCGASGPHGPTQAQCNNAYQNSNLSVEVGSEGPLKGIQIWKVPATDTYSISGYGAAGGKGGKNTMMRSHGVSVLGIFNLEKDDMLYILVGQQGEDACPSTNQLIQKVCIGENNVIEEEIRVNRSVHEWAGGGGGGGGATYVFKMKDGVPVPLIIAAGGGGRAYGAKTDTFHPERLENNSSVLGLNGNSGAAGGGGGWNDNTSLLWAGKSLQEGATGGHSCPQAMKKWGWETRGGFGGGGGGCSSGGGGGGYIGGNAASNNDPEMDGEDGVSFISPLGILYTPALKVMEGHGEVNIKHYLNCSHCEVDECHMDPESHKVICFCDHGTVLAEDGVSCIVSPTPEPHLPLSLILSVVTSALVAALVLAFSGIMIVYRRKHQELQAMQMELQSPEYKLSKLRTSTIMTDYNPNYCFAGKTSSISDLKEVPRKNITLIRGLGHGAFGEVYEGQVSGMPNDPSPLQVAVKTLPEVCSEQDELDFLMEALIISKFNHQNIVRCIGVSLQSLPRFILLELMAGGDLKSFLRETRPRPSQPSSLAMLDLLHVARDIACGCQYLEENHFIHRDIAARNCLLTCPGPGRVAKIGDFGMARDIYRASYYRKGGCAMLPVKWMPPEAFMEGIFTSKTDTWSFGVLLWEIFSLGYMPYPSKSNQEVLEFVTSGGRMDPPKNCPGPVYRIMTQCWQHQPEDRPNFAIILERIEYCTQDPDVINTALPIEYGPLVEEEEKVPVRPKDPEGVPPLLVSQQAKREEERSPAAPPPLPTTSSGKAAKKPTAAEISVRVPRGPAVEGGHVNMAFSQSNPPSELHKVHGSRNKPTSLWNPTYGSWFTEKPTKKNNPIAKKEPHDRGNLGLEGSCTVPPNVATGRLPGASLLLEPSSLTANMKEVPLFRLRHFPCGNVNYGYQQQGLPLEAATAPGAGHYEDTILKSKNSMNQPGP

> <PDB ID(s) of Target Chain>
2XB7,2XBA,3AOX,5FTO,5FTQ,6E0R,6EBW,6EDL,6MX8

> <UniProt (SwissProt) Recommended Name of Target Chain>
ALK tyrosine kinase receptor

> <UniProt (SwissProt) Entry Name of Target Chain>
ALK_HUMAN

> <UniProt (SwissProt) Primary ID of Target Chain>
Q9UM73

> <UniProt (SwissProt) Secondary ID(s) of Target Chain>
Q4ZFX9,Q53QQ6,Q53RZ4,Q59FI3,Q9Y4K6

> <UniProt (SwissProt) Alternative ID(s) of Target Chain>


> <UniProt (TrEMBL) Submitted Name of Target Chain>


> <UniProt (TrEMBL) Entry Name of Target Chain>


> <UniProt (TrEMBL) Primary ID of Target Chain>


> <UniProt (TrEMBL) Secondary ID(s) of Target Chain>


> <UniProt (TrEMBL) Alternative ID(s) of Target Chain>


$$$$
00108001.cdx

Vconf v2.0 Academic SN VC001-00000579
 77 81  0  0  0  0  0  0  0  0999 V2000
    0.4090    5.0420    2.1200 C   0  0  0  0  0  0  0  0  0  0  0
   -0.3170    3.7920    2.4170 N   0  0  0  0  0  0  0  0  0  0  0
   -1.4430    3.5950    1.4770 C   0  0  0  0  0  0  0  0  0  0  0
   -0.8140    3.8340    3.8040 C   0  0  0  0  0  0  0  0  0  0  0
   -0.9540    3.1700    0.1620 C   0  0  0  0  0  0  0  0  0  0  0
   -0.3110    1.9410    0.0340 N   0  0  0  0  0  0  0  0  0  0  0
   -1.0660    3.9180   -0.8340 O   0  0  0  0  0  0  0  0  0  0  0
    1.9090   -1.1730    4.6590 C   0  0  0  0  0  0  0  0  0  0  0
    2.6770   -2.2240    5.2140 C   0  0  0  0  0  0  0  0  0  0  0
    3.1820   -3.2410    4.3640 C   0  0  0  0  0  0  0  0  0  0  0
    2.9490   -3.1960    2.9730 C   0  0  0  0  0  0  0  0  0  0  0
    2.2240   -2.1190    2.4400 C   0  0  0  0  0  0  0  0  0  0  0
    1.7170   -1.1300    3.2720 C   0  0  0  0  0  0  0  0  0  0  0
    1.8880   -1.8210    1.0470 C   0  0  0  0  0  0  0  0  0  0  0
    1.1790   -0.5880    1.1860 N   0  0  0  0  0  0  0  0  0  0  0
    1.0760   -0.1980    2.4800 C   0  0  0  0  0  0  0  0  0  0  0
    0.5170    0.8420    2.8930 O   0  0  0  0  0  0  0  0  0  0  0
    3.9000   -4.2820    4.8640 O   0  0  0  0  0  0  0  0  0  0  0
    5.2600   -4.0500    5.2370 C   0  0  0  0  0  0  0  0  0  0  0
   -0.8130    0.5750    0.1460 C   0  0  0  0  0  0  0  0  0  0  0
    0.6600    0.1390    0.0770 C   0  0  0  0  0  0  0  0  0  0  0
    1.1040    1.6040   -0.0760 C   0  0  0  0  0  0  0  0  0  0  0
    2.9280   -2.2980    6.5490 N   0  0  0  0  0  0  0  0  0  0  0
    3.2730   -1.2520    7.3430 C   0  0  0  0  0  0  0  0  0  0  0
    3.4410    0.0020    6.8590 N   0  0  0  0  0  0  0  0  0  0  0
    3.7590    1.0750    7.6190 C   0  0  0  0  0  0  0  0  0  0  0
    3.9190    0.8760    9.0070 C   0  0  0  0  0  0  0  0  0  0  0
    3.7680   -0.4320    9.5010 C   0  0  0  0  0  0  0  0  0  0  0
    3.4520   -1.4510    8.6670 N   0  0  0  0  0  0  0  0  0  0  0
    4.2890    2.1310   10.0830 Cl  0  0  0  0  0  0  0  0  0  0  0
    3.8660    2.3260    7.0790 N   0  0  0  0  0  0  0  0  0  0  0
    3.8360    2.7320    5.7700 C   0  0  0  0  0  0  0  0  0  0  0
    3.7220    4.1220    5.5170 C   0  0  0  0  0  0  0  0  0  0  0
    3.6780    4.6000    4.1940 C   0  0  0  0  0  0  0  0  0  0  0
    3.7470    3.7160    3.1080 C   0  0  0  0  0  0  0  0  0  0  0
    3.8680    2.3410    3.3430 C   0  0  0  0  0  0  0  0  0  0  0
    3.9190    1.8570    4.6600 C   0  0  0  0  0  0  0  0  0  0  0
    3.5520    5.3020    6.7920 S   0  0  0  0  0  0  0  0  0  0  0
    1.7840    5.4020    7.1570 C   0  0  0  0  0  0  0  0  0  0  0
    4.2510    4.8480    8.1460 O   0  0  0  0  0  0  0  0  0  0  0
    3.8640    6.7410    6.1880 O   0  0  0  0  0  0  0  0  0  0  0
    1.2300    4.0550    7.6480 C   0  0  0  0  0  0  0  0  0  0  0
    1.5480    6.4800    8.2250 C   0  0  0  0  0  0  0  0  0  0  0
    1.2120    5.1830    2.8430 H   0  0  0  0  0  0  0  0  0  0  0
    0.8480    4.9910    1.1240 H   0  0  0  0  0  0  0  0  0  0  0
   -0.2660    5.8980    2.1710 H   0  0  0  0  0  0  0  0  0  0  0
   -2.0170    4.5190    1.3780 H   0  0  0  0  0  0  0  0  0  0  0
   -2.1060    2.8130    1.8500 H   0  0  0  0  0  0  0  0  0  0  0
   -1.3020    2.8900    4.0470 H   0  0  0  0  0  0  0  0  0  0  0
    0.0210    3.9780    4.4910 H   0  0  0  0  0  0  0  0  0  0  0
   -1.5270    4.6510    3.9290 H   0  0  0  0  0  0  0  0  0  0  0
    1.5160   -0.4390    5.2510 H   0  0  0  0  0  0  0  0  0  0  0
    3.3170   -3.9260    2.3610 H   0  0  0  0  0  0  0  0  0  0  0
    2.7900   -1.6900    0.4470 H   0  0  0  0  0  0  0  0  0  0  0
    1.2480   -2.5960    0.6220 H   0  0  0  0  0  0  0  0  0  0  0
    5.6920   -4.9860    5.5890 H   0  0  0  0  0  0  0  0  0  0  0
    5.8340   -3.6970    4.3790 H   0  0  0  0  0  0  0  0  0  0  0
    5.3190   -3.3130    6.0390 H   0  0  0  0  0  0  0  0  0  0  0
   -1.3430    0.3520    1.0730 H   0  0  0  0  0  0  0  0  0  0  0
   -1.4370    0.2520   -0.6870 H   0  0  0  0  0  0  0  0  0  0  0
    0.8740   -0.4420   -0.8210 H   0  0  0  0  0  0  0  0  0  0  0
    1.5590    1.8640   -1.0320 H   0  0  0  0  0  0  0  0  0  0  0
    1.7280    2.0060    0.7230 H   0  0  0  0  0  0  0  0  0  0  0
    2.8950   -3.1750    6.9620 H   0  0  0  0  0  0  0  0  0  0  0
    3.8880   -0.6250   10.4970 H   0  0  0  0  0  0  0  0  0  0  0
    3.9540    3.0340    7.7320 H   0  0  0  0  0  0  0  0  0  0  0
    3.5810    5.6000    4.0170 H   0  0  0  0  0  0  0  0  0  0  0
    3.7070    4.0720    2.1530 H   0  0  0  0  0  0  0  0  0  0  0
    3.9230    1.6920    2.5570 H   0  0  0  0  0  0  0  0  0  0  0
    4.0400    0.8560    4.7870 H   0  0  0  0  0  0  0  0  0  0  0
    1.2550    5.6890    6.2480 H   0  0  0  0  0  0  0  0  0  0  0
    0.1840    4.1680    7.9340 H   0  0  0  0  0  0  0  0  0  0  0
    1.2960    3.3150    6.8500 H   0  0  0  0  0  0  0  0  0  0  0
    1.8050    3.7110    8.5090 H   0  0  0  0  0  0  0  0  0  0  0
    0.4830    6.5630    8.4390 H   0  0  0  0  0  0  0  0  0  0  0
    2.0830    6.2170    9.1380 H   0  0  0  0  0  0  0  0  0  0  0
    1.9150    7.4390    7.8590 H   0  0  0  0  0  0  0  0  0  0  0
  1  2  1  0  0  0  0
  1 44  1  0  0  0  0
  1 45  1  0  0  0  0
  1 46  1  0  0  0  0
  2  3  1  0  0  0  0
  2  4  1  0  0  0  0
  3  5  1  0  0  0  0
  3 47  1  0  0  0  0
  3 48  1  0  0  0  0
  4 49  1  0  0  0  0
  4 50  1  0  0  0  0
  4 51  1  0  0  0  0
  5  6  1  0  0  0  0
  5  7  2  0  0  0  0
  6 20  1  0  0  0  0
  6 22  1  0  0  0  0
  8  9  2  0  0  0  0
  8 13  1  0  0  0  0
  8 52  1  0  0  0  0
  9 10  1  0  0  0  0
  9 23  1  0  0  0  0
 10 11  2  0  0  0  0
 10 18  1  0  0  0  0
 11 12  1  0  0  0  0
 11 53  1  0  0  0  0
 12 13  2  0  0  0  0
 12 14  1  0  0  0  0
 13 16  1  0  0  0  0
 14 15  1  0  0  0  0
 14 54  1  0  0  0  0
 14 55  1  0  0  0  0
 15 16  1  0  0  0  0
 15 21  1  0  0  0  0
 16 17  2  0  0  0  0
 18 19  1  0  0  0  0
 19 56  1  0  0  0  0
 19 57  1  0  0  0  0
 19 58  1  0  0  0  0
 20 21  1  0  0  0  0
 20 59  1  0  0  0  0
 20 60  1  0  0  0  0
 21 22  1  0  0  0  0
 21 61  1  0  0  0  0
 22 62  1  0  0  0  0
 22 63  1  0  0  0  0
 23 24  1  0  0  0  0
 23 64  1  0  0  0  0
 24 25  2  0  0  0  0
 24 29  1  0  0  0  0
 25 26  1  0  0  0  0
 26 27  2  0  0  0  0
 26 31  1  0  0  0  0
 27 28  1  0  0  0  0
 27 30  1  0  0  0  0
 28 29  2  0  0  0  0
 28 65  1  0  0  0  0
 31 32  1  0  0  0  0
 31 66  1  0  0  0  0
 32 33  2  0  0  0  0
 32 37  1  0  0  0  0
 33 34  1  0  0  0  0
 33 38  1  0  0  0  0
 34 35  2  0  0  0  0
 34 67  1  0  0  0  0
 35 36  1  0  0  0  0
 35 68  1  0  0  0  0
 36 37  2  0  0  0  0
 36 69  1  0  0  0  0
 37 70  1  0  0  0  0
 38 39  1  0  0  0  0
 38 40  2  0  0  0  0
 38 41  2  0  0  0  0
 39 42  1  0  0  0  0
 39 43  1  0  0  0  0
 39 71  1  0  0  0  0
 42 72  1  0  0  0  0
 42 73  1  0  0  0  0
 42 74  1  0  0  0  0
 43 75  1  0  0  0  0
 43 76  1  0  0  0  0
 43 77  1  0  0  0  0
M  END
> <From>
www.bindingDB.org

> <BindingDB Reactant_set_id>
226256

> <Ligand InChI>
InChI=1S/C29H34ClN7O5S/c1-17(2)43(40,41)25-9-7-6-8-22(25)32-27-21(30)12-31-29(34-27)33-23-11-20-18(10-24(23)42-5)13-37(28(20)39)19-14-36(15-19)26(38)16-35(3)4/h6-12,17,19H,13-16H2,1-5H3,(H2,31,32,33,34)

> <Ligand InChI Key>
ZJYZBFPKYNFAFF-UHFFFAOYSA-N

> <BindingDB MonomerID>
107043

> <BindingDB Ligand Name>
US8592432, 18

> <Target Name Assigned by Curator or DataSource>
ALK tyrosine kinase receptor

> <Target Source Organism According to Curator or DataSource>
Homo sapiens

> <Ki (nM)>


> <IC50 (nM)>
 6

> <Kd (nM)>


> <EC50 (nM)>


> <kon (M-1-s-1)>


> <koff (s-1)>


> <pH>


> <Temp C>


> <Curation/DataSource>
US Patent

> <Article DOI>


> <PMID>


> <PubChem AID>


> <Patent Number>
US8592432

> <Authors>
Chen, B; Jiang, T; Marsilje, TH; Michellys, P; Nguyen, TN; Pei, W; Wu, B; Gao, Z; Ge, Y; Huang, C; Li, Y; Zhu, X

> <Institution>
TBA

> <Link to Ligand in BindingDB>
http://www.bindingdb.org/bind/chemsearch/marvin/MolStructure.jsp?monomerid=107043

> <Link to Ligand-Target Pair in BindingDB>
http://www.bindingdb.org/jsp/dbsearch/PrimarySearch_ki.jsp?energyterm=kJ/mole&tag=pol&polymerid=5809&target=ALK+tyrosine+kinase+receptor&column=ki&startPg=0&Increment=50&submit=Search

> <Link to Ligand-Target Pair in BindingDB>
http://www.bindingdb.org/jsp/dbsearch/PrimarySearch_ki.jsp?energyterm=kJ/mole&tag=r21&monomerid=107043&enzyme=ALK+tyrosine+kinase+receptor&column=ki&startPg=0&Increment=50&submit=Search

> <Ligand HET ID in PDB>


> <PDB ID(s) for Ligand-Target Complex>


> <PubChem CID>
58290861

> <PubChem SID>
175444490

> <ChEBI ID of Ligand>


> <ChEMBL ID of Ligand>


> <DrugBank ID of Ligand>


> <IUPHAR_GRAC ID of Ligand>


> <KEGG ID of Ligand>


> <ZINC ID of Ligand>
ZINC96177899

> <Number of Protein Chains in Target (>1 implies a multichain complex)>
1

> <BindingDB Target Chain Sequence>
MGAIGLLWLLPLLLSTAAVGSGMGTGQRAGSPAAGPPLQPREPLSYSRLQRKSLAVDFVVPSLFRVYARDLLLPPSSSELKAGRPEARGSLALDCAPLLRLLGPAPGVSWTAGSPAPAEARTLSRVLKGGSVRKLRRAKQLVLELGEEAILEGCVGPPGEAAVGLLQFNLSELFSWWIRQGEGRLRIRLMPEKKASEVGREGRLSAAIRASQPRLLFQIFGTGHSSLESPTNMPSPSPDYFTWNLTWIMKDSFPFLSHRSRYGLECSFDFPCELEYSPPLHDLRNQSWSWRRIPSEEASQMDLLDGPGAERSKEMPRGSFLLLNTSADSKHTILSPWMRSSSEHCTLAVSVHRHLQPSGRYIAQLLPHNEAAREILLMPTPGKHGWTVLQGRIGRPDNPFRVALEYISSGNRSLSAVDFFALKNCSEGTSPGSKMALQSSFTCWNGTVLQLGQACDFHQDCAQGEDESQMCRKLPVGFYCNFEDGFCGWTQGTLSPHTPQWQVRTLKDARFQDHQDHALLLSTTDVPASESATVTSATFPAPIKSSPCELRMSWLIRGVLRGNVSLVLVENKTGKEQGRMVWHVAAYEGLSLWQWMVLPLLDVSDRFWLQMVAWWGQGSRAIVAFDNISISLDCYLTISGEDKILQNTAPKSRNLFERNPNKELKPGENSPRQTPIFDPTVHWLFTTCGASGPHGPTQAQCNNAYQNSNLSVEVGSEGPLKGIQIWKVPATDTYSISGYGAAGGKGGKNTMMRSHGVSVLGIFNLEKDDMLYILVGQQGEDACPSTNQLIQKVCIGENNVIEEEIRVNRSVHEWAGGGGGGGGATYVFKMKDGVPVPLIIAAGGGGRAYGAKTDTFHPERLENNSSVLGLNGNSGAAGGGGGWNDNTSLLWAGKSLQEGATGGHSCPQAMKKWGWETRGGFGGGGGGCSSGGGGGGYIGGNAASNNDPEMDGEDGVSFISPLGILYTPALKVMEGHGEVNIKHYLNCSHCEVDECHMDPESHKVICFCDHGTVLAEDGVSCIVSPTPEPHLPLSLILSVVTSALVAALVLAFSGIMIVYRRKHQELQAMQMELQSPEYKLSKLRTSTIMTDYNPNYCFAGKTSSISDLKEVPRKNITLIRGLGHGAFGEVYEGQVSGMPNDPSPLQVAVKTLPEVCSEQDELDFLMEALIISKFNHQNIVRCIGVSLQSLPRFILLELMAGGDLKSFLRETRPRPSQPSSLAMLDLLHVARDIACGCQYLEENHFIHRDIAARNCLLTCPGPGRVAKIGDFGMARDIYRASYYRKGGCAMLPVKWMPPEAFMEGIFTSKTDTWSFGVLLWEIFSLGYMPYPSKSNQEVLEFVTSGGRMDPPKNCPGPVYRIMTQCWQHQPEDRPNFAIILERIEYCTQDPDVINTALPIEYGPLVEEEEKVPVRPKDPEGVPPLLVSQQAKREEERSPAAPPPLPTTSSGKAAKKPTAAEISVRVPRGPAVEGGHVNMAFSQSNPPSELHKVHGSRNKPTSLWNPTYGSWFTEKPTKKNNPIAKKEPHDRGNLGLEGSCTVPPNVATGRLPGASLLLEPSSLTANMKEVPLFRLRHFPCGNVNYGYQQQGLPLEAATAPGAGHYEDTILKSKNSMNQPGP

> <PDB ID(s) of Target Chain>
2XB7,2XBA,3AOX,5FTO,5FTQ,6E0R,6EBW,6EDL,6MX8

> <UniProt (SwissProt) Recommended Name of Target Chain>
ALK tyrosine kinase receptor

> <UniProt (SwissProt) Entry Name of Target Chain>
ALK_HUMAN

> <UniProt (SwissProt) Primary ID of Target Chain>
Q9UM73

> <UniProt (SwissProt) Secondary ID(s) of Target Chain>
Q4ZFX9,Q53QQ6,Q53RZ4,Q59FI3,Q9Y4K6

> <UniProt (SwissProt) Alternative ID(s) of Target Chain>


> <UniProt (TrEMBL) Submitted Name of Target Chain>


> <UniProt (TrEMBL) Entry Name of Target Chain>


> <UniProt (TrEMBL) Primary ID of Target Chain>


> <UniProt (TrEMBL) Secondary ID(s) of Target Chain>


> <UniProt (TrEMBL) Alternative ID(s) of Target Chain>


$$$$
00109001.cdx

Vconf v2.0 Academic SN VC001-00000579
 78 83  0  0  0  0  0  0  0  0999 V2000
   -0.5330   -2.2270    0.9650 C   0  0  1  0  0  0  0  0  0  0  0
    0.8810   -2.1280    1.0630 N   0  0  0  0  0  0  0  0  0  0  0
    1.5970   -0.9080    1.2730 C   0  0  0  0  0  0  0  0  0  0  0
    2.9800   -1.3900    1.2930 C   0  0  0  0  0  0  0  0  0  0  0
    3.0040   -2.7680    1.1130 C   0  0  0  0  0  0  0  0  0  0  0
    1.7000   -3.1990    0.9760 C   0  0  0  0  0  0  0  0  0  0  0
    4.1750   -0.6680    1.4490 C   0  0  0  0  0  0  0  0  0  0  0
    5.4070   -1.3620    1.4020 C   0  0  0  0  0  0  0  0  0  0  0
    5.4190   -2.7650    1.2090 C   0  0  0  0  0  0  0  0  0  0  0
    4.2100   -3.4810    1.0740 C   0  0  0  0  0  0  0  0  0  0  0
    6.6090   -0.7260    1.5340 O   0  0  0  0  0  0  0  0  0  0  0
    6.8470    0.5550    0.9460 C   0  0  0  0  0  0  0  0  0  0  0
   -1.4030   -0.9660    0.9120 C   0  0  0  0  0  0  0  0  0  0  0
   -2.1010   -1.5520   -0.2370 N   0  0  0  0  0  0  0  0  0  0  0
   -1.1140   -2.6260   -0.3970 C   0  0  0  0  0  0  0  0  0  0  0
   -2.7000   -0.8160   -1.2600 C   0  0  0  0  0  0  0  0  0  0  0
   -1.9070    0.1530   -2.0350 C   0  0  1  0  0  0  0  0  0  0  0
   -3.9270   -0.9620   -1.4570 O   0  0  0  0  0  0  0  0  0  0  0
   -0.8290   -0.4960   -2.7880 N   0  0  0  0  0  0  0  0  0  0  0
   -0.3730    0.5520   -3.7060 C   0  0  0  0  0  0  0  0  0  0  0
   -1.6150    1.3640   -4.0930 C   0  0  0  0  0  0  0  0  0  0  0
   -2.6960    0.9160   -3.1070 C   0  0  0  0  0  0  0  0  0  0  0
    1.3330   -4.3810    0.7970 O   0  0  0  0  0  0  0  0  0  0  0
    6.5960   -3.4240    1.1020 N   0  0  0  0  0  0  0  0  0  0  0
    7.1030   -3.8410   -0.0810 C   0  0  0  0  0  0  0  0  0  0  0
    8.2920   -4.4830   -0.1110 N   0  0  0  0  0  0  0  0  0  0  0
    8.8400   -4.9040   -1.2750 C   0  0  0  0  0  0  0  0  0  0  0
    8.1860   -4.6750   -2.4980 C   0  0  0  0  0  0  0  0  0  0  0
    6.9400   -4.0110   -2.4620 C   0  0  0  0  0  0  0  0  0  0  0
    6.4610   -3.6280   -1.2540 N   0  0  0  0  0  0  0  0  0  0  0
    8.9230   -5.1990   -3.9310 Cl  0  0  0  0  0  0  0  0  0  0  0
    6.2570   -3.7720   -3.6190 N   0  0  0  0  0  0  0  0  0  0  0
    5.0440   -3.1710   -3.8370 C   0  0  0  0  0  0  0  0  0  0  0
    4.1980   -2.6560   -2.8230 C   0  0  0  0  0  0  0  0  0  0  0
    2.9470   -2.0970   -3.1290 C   0  0  0  0  0  0  0  0  0  0  0
    2.5160   -2.0380   -4.4610 C   0  0  0  0  0  0  0  0  0  0  0
    3.3440   -2.5300   -5.4800 C   0  0  0  0  0  0  0  0  0  0  0
    4.6030   -3.0850   -5.1820 C   0  0  0  0  0  0  0  0  0  0  0
    5.5510   -3.6720   -6.5260 S   0  0  0  0  0  0  0  0  0  0  0
    5.0940   -5.3980   -6.8000 C   0  0  0  0  0  0  0  0  0  0  0
    5.8710   -5.9390   -8.0090 C   0  0  0  0  0  0  0  0  0  0  0
    5.3820   -6.2650   -5.5640 C   0  0  0  0  0  0  0  0  0  0  0
    5.0160   -2.9690   -7.8490 O   0  0  0  0  0  0  0  0  0  0  0
    7.1100   -3.6700   -6.2160 O   0  0  0  0  0  0  0  0  0  0  0
   -0.8620   -2.8990    1.7610 H   0  0  0  0  0  0  0  0  0  0  0
    1.3240   -0.4510    2.2260 H   0  0  0  0  0  0  0  0  0  0  0
    1.4410   -0.2110    0.4490 H   0  0  0  0  0  0  0  0  0  0  0
    4.1470    0.3410    1.5930 H   0  0  0  0  0  0  0  0  0  0  0
    4.2100   -4.4910    0.9290 H   0  0  0  0  0  0  0  0  0  0  0
    7.8830    0.8360    1.1380 H   0  0  0  0  0  0  0  0  0  0  0
    6.6910    0.5090   -0.1330 H   0  0  0  0  0  0  0  0  0  0  0
    6.1950    1.3130    1.3810 H   0  0  0  0  0  0  0  0  0  0  0
   -0.8610   -0.0450    0.6970 H   0  0  0  0  0  0  0  0  0  0  0
   -2.0210   -0.7810    1.7910 H   0  0  0  0  0  0  0  0  0  0  0
   -1.5220   -3.6350   -0.4500 H   0  0  0  0  0  0  0  0  0  0  0
   -0.4200   -2.5100   -1.2320 H   0  0  0  0  0  0  0  0  0  0  0
   -1.4720    0.8770   -1.3440 H   0  0  0  0  0  0  0  0  0  0  0
   -1.2850   -1.2060   -3.3650 H   0  0  0  0  0  0  0  0  0  0  0
    0.3420    1.1960   -3.1910 H   0  0  0  0  0  0  0  0  0  0  0
    0.0960    0.1160   -4.5880 H   0  0  0  0  0  0  0  0  0  0  0
   -1.4140    2.4310   -3.9840 H   0  0  0  0  0  0  0  0  0  0  0
   -1.9190    1.1420   -5.1160 H   0  0  0  0  0  0  0  0  0  0  0
   -3.2220    1.7700   -2.6770 H   0  0  0  0  0  0  0  0  0  0  0
   -3.4010    0.2550   -3.6160 H   0  0  0  0  0  0  0  0  0  0  0
    7.1230   -3.5640    1.9030 H   0  0  0  0  0  0  0  0  0  0  0
    9.7390   -5.3880   -1.2520 H   0  0  0  0  0  0  0  0  0  0  0
    6.7060   -4.0880   -4.4150 H   0  0  0  0  0  0  0  0  0  0  0
    4.4670   -2.6770   -1.8440 H   0  0  0  0  0  0  0  0  0  0  0
    2.3510   -1.7380   -2.3830 H   0  0  0  0  0  0  0  0  0  0  0
    1.6040   -1.6410   -4.6860 H   0  0  0  0  0  0  0  0  0  0  0
    3.0250   -2.4820   -6.4480 H   0  0  0  0  0  0  0  0  0  0  0
    4.0270   -5.4420   -7.0190 H   0  0  0  0  0  0  0  0  0  0  0
    5.5840   -6.9730   -8.1990 H   0  0  0  0  0  0  0  0  0  0  0
    5.6420   -5.3360   -8.8880 H   0  0  0  0  0  0  0  0  0  0  0
    6.9420   -5.8910   -7.8100 H   0  0  0  0  0  0  0  0  0  0  0
    5.1280   -7.3030   -5.7780 H   0  0  0  0  0  0  0  0  0  0  0
    6.4370   -6.2010   -5.3030 H   0  0  0  0  0  0  0  0  0  0  0
    4.7810   -5.9240   -4.7220 H   0  0  0  0  0  0  0  0  0  0  0
  1  2  1  0  0  0  0
  1 13  1  0  0  0  0
  1 15  1  0  0  0  0
  1 45  1  0  0  0  0
  2  3  1  0  0  0  0
  2  6  1  0  0  0  0
  3  4  1  0  0  0  0
  3 46  1  0  0  0  0
  3 47  1  0  0  0  0
  4  5  2  0  0  0  0
  4  7  1  0  0  0  0
  5  6  1  0  0  0  0
  5 10  1  0  0  0  0
  6 23  2  0  0  0  0
  7  8  2  0  0  0  0
  7 48  1  0  0  0  0
  8  9  1  0  0  0  0
  8 11  1  0  0  0  0
  9 10  2  0  0  0  0
  9 24  1  0  0  0  0
 10 49  1  0  0  0  0
 11 12  1  0  0  0  0
 12 50  1  0  0  0  0
 12 51  1  0  0  0  0
 12 52  1  0  0  0  0
 13 14  1  0  0  0  0
 13 53  1  0  0  0  0
 13 54  1  0  0  0  0
 14 15  1  0  0  0  0
 14 16  1  0  0  0  0
 15 55  1  0  0  0  0
 15 56  1  0  0  0  0
 17 16  1  6  0  0  0
 16 18  2  0  0  0  0
 17 19  1  0  0  0  0
 17 22  1  0  0  0  0
 17 57  1  0  0  0  0
 19 20  1  0  0  0  0
 19 58  1  0  0  0  0
 20 21  1  0  0  0  0
 20 59  1  0  0  0  0
 20 60  1  0  0  0  0
 21 22  1  0  0  0  0
 21 61  1  0  0  0  0
 21 62  1  0  0  0  0
 22 63  1  0  0  0  0
 22 64  1  0  0  0  0
 24 25  1  0  0  0  0
 24 65  1  0  0  0  0
 25 26  2  0  0  0  0
 25 30  1  0  0  0  0
 26 27  1  0  0  0  0
 27 28  2  0  0  0  0
 27 66  1  0  0  0  0
 28 29  1  0  0  0  0
 28 31  1  0  0  0  0
 29 30  2  0  0  0  0
 29 32  1  0  0  0  0
 32 33  1  0  0  0  0
 32 67  1  0  0  0  0
 33 34  2  0  0  0  0
 33 38  1  0  0  0  0
 34 35  1  0  0  0  0
 34 68  1  0  0  0  0
 35 36  2  0  0  0  0
 35 69  1  0  0  0  0
 36 37  1  0  0  0  0
 36 70  1  0  0  0  0
 37 38  2  0  0  0  0
 37 71  1  0  0  0  0
 38 39  1  0  0  0  0
 39 40  1  0  0  0  0
 39 43  2  0  0  0  0
 39 44  2  0  0  0  0
 40 41  1  0  0  0  0
 40 42  1  0  0  0  0
 40 72  1  0  0  0  0
 41 73  1  0  0  0  0
 41 74  1  0  0  0  0
 41 75  1  0  0  0  0
 42 76  1  0  0  0  0
 42 77  1  0  0  0  0
 42 78  1  0  0  0  0
M  END
> <From>
www.bindingDB.org

> <BindingDB Reactant_set_id>
226257

> <Ligand InChI>
InChI=1S/C30H34ClN7O5S/c1-17(2)44(41,42)26-9-5-4-7-22(26)34-27-21(31)13-33-30(36-27)35-24-12-20-18(11-25(24)43-3)14-38(28(20)39)19-15-37(16-19)29(40)23-8-6-10-32-23/h4-5,7,9,11-13,17,19,23,32H,6,8,10,14-16H2,1-3H3,(H2,33,34,35,36)/t23-/m0/s1

> <Ligand InChI Key>
BPJGCCUERFHLOJ-QHCPKHFHSA-N

> <BindingDB MonomerID>
107044

> <BindingDB Ligand Name>
US8592432, 19

> <Target Name Assigned by Curator or DataSource>
ALK tyrosine kinase receptor

> <Target Source Organism According to Curator or DataSource>
Homo sapiens

> <Ki (nM)>


> <IC50 (nM)>
 12

> <Kd (nM)>


> <EC50 (nM)>


> <kon (M-1-s-1)>


> <koff (s-1)>


> <pH>


> <Temp C>


> <Curation/DataSource>
US Patent

> <Article DOI>


> <PMID>


> <PubChem AID>


> <Patent Number>
US8592432

> <Authors>
Chen, B; Jiang, T; Marsilje, TH; Michellys, P; Nguyen, TN; Pei, W; Wu, B; Gao, Z; Ge, Y; Huang, C; Li, Y; Zhu, X

> <Institution>
TBA

> <Link to Ligand in BindingDB>
http://www.bindingdb.org/bind/chemsearch/marvin/MolStructure.jsp?monomerid=107044

> <Link to Ligand-Target Pair in BindingDB>
http://www.bindingdb.org/jsp/dbsearch/PrimarySearch_ki.jsp?energyterm=kJ/mole&tag=pol&polymerid=5809&target=ALK+tyrosine+kinase+receptor&column=ki&startPg=0&Increment=50&submit=Search

> <Link to Ligand-Target Pair in BindingDB>
http://www.bindingdb.org/jsp/dbsearch/PrimarySearch_ki.jsp?energyterm=kJ/mole&tag=r21&monomerid=107044&enzyme=ALK+tyrosine+kinase+receptor&column=ki&startPg=0&Increment=50&submit=Search

> <Ligand HET ID in PDB>


> <PDB ID(s) for Ligand-Target Complex>


> <PubChem CID>
44467751

> <PubChem SID>
175444491

> <ChEBI ID of Ligand>


> <ChEMBL ID of Ligand>


> <DrugBank ID of Ligand>


> <IUPHAR_GRAC ID of Ligand>


> <KEGG ID of Ligand>


> <ZINC ID of Ligand>
ZINC96177900

> <Number of Protein Chains in Target (>1 implies a multichain complex)>
1

> <BindingDB Target Chain Sequence>
MGAIGLLWLLPLLLSTAAVGSGMGTGQRAGSPAAGPPLQPREPLSYSRLQRKSLAVDFVVPSLFRVYARDLLLPPSSSELKAGRPEARGSLALDCAPLLRLLGPAPGVSWTAGSPAPAEARTLSRVLKGGSVRKLRRAKQLVLELGEEAILEGCVGPPGEAAVGLLQFNLSELFSWWIRQGEGRLRIRLMPEKKASEVGREGRLSAAIRASQPRLLFQIFGTGHSSLESPTNMPSPSPDYFTWNLTWIMKDSFPFLSHRSRYGLECSFDFPCELEYSPPLHDLRNQSWSWRRIPSEEASQMDLLDGPGAERSKEMPRGSFLLLNTSADSKHTILSPWMRSSSEHCTLAVSVHRHLQPSGRYIAQLLPHNEAAREILLMPTPGKHGWTVLQGRIGRPDNPFRVALEYISSGNRSLSAVDFFALKNCSEGTSPGSKMALQSSFTCWNGTVLQLGQACDFHQDCAQGEDESQMCRKLPVGFYCNFEDGFCGWTQGTLSPHTPQWQVRTLKDARFQDHQDHALLLSTTDVPASESATVTSATFPAPIKSSPCELRMSWLIRGVLRGNVSLVLVENKTGKEQGRMVWHVAAYEGLSLWQWMVLPLLDVSDRFWLQMVAWWGQGSRAIVAFDNISISLDCYLTISGEDKILQNTAPKSRNLFERNPNKELKPGENSPRQTPIFDPTVHWLFTTCGASGPHGPTQAQCNNAYQNSNLSVEVGSEGPLKGIQIWKVPATDTYSISGYGAAGGKGGKNTMMRSHGVSVLGIFNLEKDDMLYILVGQQGEDACPSTNQLIQKVCIGENNVIEEEIRVNRSVHEWAGGGGGGGGATYVFKMKDGVPVPLIIAAGGGGRAYGAKTDTFHPERLENNSSVLGLNGNSGAAGGGGGWNDNTSLLWAGKSLQEGATGGHSCPQAMKKWGWETRGGFGGGGGGCSSGGGGGGYIGGNAASNNDPEMDGEDGVSFISPLGILYTPALKVMEGHGEVNIKHYLNCSHCEVDECHMDPESHKVICFCDHGTVLAEDGVSCIVSPTPEPHLPLSLILSVVTSALVAALVLAFSGIMIVYRRKHQELQAMQMELQSPEYKLSKLRTSTIMTDYNPNYCFAGKTSSISDLKEVPRKNITLIRGLGHGAFGEVYEGQVSGMPNDPSPLQVAVKTLPEVCSEQDELDFLMEALIISKFNHQNIVRCIGVSLQSLPRFILLELMAGGDLKSFLRETRPRPSQPSSLAMLDLLHVARDIACGCQYLEENHFIHRDIAARNCLLTCPGPGRVAKIGDFGMARDIYRASYYRKGGCAMLPVKWMPPEAFMEGIFTSKTDTWSFGVLLWEIFSLGYMPYPSKSNQEVLEFVTSGGRMDPPKNCPGPVYRIMTQCWQHQPEDRPNFAIILERIEYCTQDPDVINTALPIEYGPLVEEEEKVPVRPKDPEGVPPLLVSQQAKREEERSPAAPPPLPTTSSGKAAKKPTAAEISVRVPRGPAVEGGHVNMAFSQSNPPSELHKVHGSRNKPTSLWNPTYGSWFTEKPTKKNNPIAKKEPHDRGNLGLEGSCTVPPNVATGRLPGASLLLEPSSLTANMKEVPLFRLRHFPCGNVNYGYQQQGLPLEAATAPGAGHYEDTILKSKNSMNQPGP

> <PDB ID(s) of Target Chain>
2XB7,2XBA,3AOX,5FTO,5FTQ,6E0R,6EBW,6EDL,6MX8

> <UniProt (SwissProt) Recommended Name of Target Chain>
ALK tyrosine kinase receptor

> <UniProt (SwissProt) Entry Name of Target Chain>
ALK_HUMAN

> <UniProt (SwissProt) Primary ID of Target Chain>
Q9UM73

> <UniProt (SwissProt) Secondary ID(s) of Target Chain>
Q4ZFX9,Q53QQ6,Q53RZ4,Q59FI3,Q9Y4K6

> <UniProt (SwissProt) Alternative ID(s) of Target Chain>


> <UniProt (TrEMBL) Submitted Name of Target Chain>


> <UniProt (TrEMBL) Entry Name of Target Chain>


> <UniProt (TrEMBL) Primary ID of Target Chain>


> <UniProt (TrEMBL) Secondary ID(s) of Target Chain>


> <UniProt (TrEMBL) Alternative ID(s) of Target Chain>


$$$$
00110001.cdx

Vconf v2.0 Academic SN VC001-00000579
 81 86  0  0  0  0  0  0  0  0999 V2000
   -2.5110    2.7150    0.8900 C   0  0  2  0  0  0  0  0  0  0  0
   -3.3780    1.7320    1.5630 C   0  0  0  0  0  0  0  0  0  0  0
   -3.8900    0.6490    0.8500 N   0  0  0  0  0  0  0  0  0  0  0
   -3.6520    1.8380    2.7790 O   0  0  0  0  0  0  0  0  0  0  0
   -4.6510   -2.9140   -4.6900 C   0  0  0  0  0  0  0  0  0  0  0
   -3.7360   -3.7100   -5.4110 C   0  0  0  0  0  0  0  0  0  0  0
   -2.5090   -4.1110   -4.8190 C   0  0  0  0  0  0  0  0  0  0  0
   -2.1940   -3.6890   -3.5050 C   0  0  0  0  0  0  0  0  0  0  0
   -3.1100   -2.8890   -2.8060 C   0  0  0  0  0  0  0  0  0  0  0
   -4.3120   -2.5110   -3.3890 C   0  0  0  0  0  0  0  0  0  0  0
   -3.0130   -2.3470   -1.4500 C   0  0  0  0  0  0  0  0  0  0  0
   -4.2550   -1.6520   -1.3390 N   0  0  0  0  0  0  0  0  0  0  0
   -5.0000   -1.7450   -2.4650 C   0  0  0  0  0  0  0  0  0  0  0
   -6.1270   -1.2290   -2.6360 O   0  0  0  0  0  0  0  0  0  0  0
   -1.6800   -4.9160   -5.5500 O   0  0  0  0  0  0  0  0  0  0  0
   -0.3830   -5.3130   -5.0960 C   0  0  0  0  0  0  0  0  0  0  0
   -3.7130   -0.7890    1.0170 C   0  0  0  0  0  0  0  0  0  0  0
   -4.6730   -0.9480   -0.1750 C   0  0  1  0  0  0  0  0  0  0  0
   -4.7670    0.5800   -0.3140 C   0  0  0  0  0  0  0  0  0  0  0
   -4.0950   -4.1060   -6.6570 N   0  0  0  0  0  0  0  0  0  0  0
   -3.4070   -3.8310   -7.7900 C   0  0  0  0  0  0  0  0  0  0  0
   -3.8820   -4.3070   -8.9620 N   0  0  0  0  0  0  0  0  0  0  0
   -3.2630   -4.1160  -10.1520 C   0  0  0  0  0  0  0  0  0  0  0
   -2.1000   -3.3070  -10.1890 C   0  0  0  0  0  0  0  0  0  0  0
   -1.6130   -2.8300   -8.9590 C   0  0  0  0  0  0  0  0  0  0  0
   -2.2660   -3.1020   -7.8070 N   0  0  0  0  0  0  0  0  0  0  0
   -1.3730   -2.7000  -11.5960 Cl  0  0  0  0  0  0  0  0  0  0  0
   -3.9230   -4.7190  -11.1820 N   0  0  0  0  0  0  0  0  0  0  0
   -3.4800   -5.2270  -12.3670 C   0  0  0  0  0  0  0  0  0  0  0
   -4.4310   -5.4730  -13.3870 C   0  0  0  0  0  0  0  0  0  0  0
   -4.0160   -6.0230  -14.6160 C   0  0  0  0  0  0  0  0  0  0  0
   -2.6730   -6.3650  -14.8310 C   0  0  0  0  0  0  0  0  0  0  0
   -1.7330   -6.1650  -13.8110 C   0  0  0  0  0  0  0  0  0  0  0
   -2.1370   -5.6100  -12.5860 C   0  0  0  0  0  0  0  0  0  0  0
   -6.1170   -5.0620  -13.2090 S   0  0  0  0  0  0  0  0  0  0  0
   -6.3010   -3.3280  -13.6900 C   0  0  0  0  0  0  0  0  0  0  0
   -6.9370   -5.8260  -14.3390 O   0  0  0  0  0  0  0  0  0  0  0
   -6.5990   -5.1360  -11.6950 O   0  0  0  0  0  0  0  0  0  0  0
   -7.7870   -2.9450  -13.6440 C   0  0  0  0  0  0  0  0  0  0  0
   -5.4960   -2.4000  -12.7670 C   0  0  0  0  0  0  0  0  0  0  0
   -1.1330    2.8470    1.5680 C   0  0  0  0  0  0  0  0  0  0  0
   -1.1570    4.1990    2.2850 C   0  0  0  0  0  0  0  0  0  0  0
   -2.6010    4.6870    2.1480 C   0  0  0  0  0  0  0  0  0  0  0
   -3.1360    4.0550    0.9290 N   0  0  0  0  0  0  0  0  0  0  0
   -2.7580    4.8390   -0.2630 C   0  0  0  0  0  0  0  0  0  0  0
   -2.3720    2.3870   -0.1420 H   0  0  0  0  0  0  0  0  0  0  0
   -5.5400   -2.6330   -5.1040 H   0  0  0  0  0  0  0  0  0  0  0
   -1.3200   -3.9660   -3.0600 H   0  0  0  0  0  0  0  0  0  0  0
   -2.1680   -1.6620   -1.3640 H   0  0  0  0  0  0  0  0  0  0  0
   -2.9420   -3.1480   -0.7110 H   0  0  0  0  0  0  0  0  0  0  0
    0.0850   -5.9270   -5.8650 H   0  0  0  0  0  0  0  0  0  0  0
    0.2400   -4.4350   -4.9190 H   0  0  0  0  0  0  0  0  0  0  0
   -0.4650   -5.8980   -4.1790 H   0  0  0  0  0  0  0  0  0  0  0
   -2.6870   -1.1300    0.8820 H   0  0  0  0  0  0  0  0  0  0  0
   -4.0800   -1.1840    1.9650 H   0  0  0  0  0  0  0  0  0  0  0
   -5.6180   -1.3970    0.1370 H   0  0  0  0  0  0  0  0  0  0  0
   -5.7640    0.9990   -0.1740 H   0  0  0  0  0  0  0  0  0  0  0
   -4.3420    1.0010   -1.2260 H   0  0  0  0  0  0  0  0  0  0  0
   -4.9280   -4.5920   -6.7520 H   0  0  0  0  0  0  0  0  0  0  0
   -0.7790   -2.2430   -8.9230 H   0  0  0  0  0  0  0  0  0  0  0
   -4.8640   -4.8590  -11.0070 H   0  0  0  0  0  0  0  0  0  0  0
   -4.6970   -6.1770  -15.3600 H   0  0  0  0  0  0  0  0  0  0  0
   -2.3830   -6.7660  -15.7230 H   0  0  0  0  0  0  0  0  0  0  0
   -0.7580   -6.4310  -13.9540 H   0  0  0  0  0  0  0  0  0  0  0
   -1.4470   -5.5150  -11.8420 H   0  0  0  0  0  0  0  0  0  0  0
   -5.9400   -3.2090  -14.7120 H   0  0  0  0  0  0  0  0  0  0  0
   -7.9120   -1.9080  -13.9560 H   0  0  0  0  0  0  0  0  0  0  0
   -8.3490   -3.5920  -14.3180 H   0  0  0  0  0  0  0  0  0  0  0
   -8.1670   -3.0680  -12.6290 H   0  0  0  0  0  0  0  0  0  0  0
   -5.6950   -1.3600  -13.0260 H   0  0  0  0  0  0  0  0  0  0  0
   -5.7800   -2.5740  -11.7290 H   0  0  0  0  0  0  0  0  0  0  0
   -4.4310   -2.5930  -12.8870 H   0  0  0  0  0  0  0  0  0  0  0
   -0.9450    2.0410    2.2810 H   0  0  0  0  0  0  0  0  0  0  0
   -0.3480    2.8510    0.8120 H   0  0  0  0  0  0  0  0  0  0  0
   -0.4820    4.8960    1.7870 H   0  0  0  0  0  0  0  0  0  0  0
   -0.8810    4.0950    3.3350 H   0  0  0  0  0  0  0  0  0  0  0
   -2.6440    5.7760    2.1000 H   0  0  0  0  0  0  0  0  0  0  0
   -3.1780    4.3460    3.0090 H   0  0  0  0  0  0  0  0  0  0  0
   -3.1860    5.8400   -0.1930 H   0  0  0  0  0  0  0  0  0  0  0
   -1.6730    4.9190   -0.3490 H   0  0  0  0  0  0  0  0  0  0  0
   -3.1520    4.3550   -1.1570 H   0  0  0  0  0  0  0  0  0  0  0
  1  2  1  1  0  0  0
  1 41  1  0  0  0  0
  1 44  1  0  0  0  0
  1 46  1  0  0  0  0
  2  3  1  0  0  0  0
  2  4  2  0  0  0  0
  3 17  1  0  0  0  0
  3 19  1  0  0  0  0
  5  6  2  0  0  0  0
  5 10  1  0  0  0  0
  5 47  1  0  0  0  0
  6  7  1  0  0  0  0
  6 20  1  0  0  0  0
  7  8  2  0  0  0  0
  7 15  1  0  0  0  0
  8  9  1  0  0  0  0
  8 48  1  0  0  0  0
  9 10  2  0  0  0  0
  9 11  1  0  0  0  0
 10 13  1  0  0  0  0
 11 12  1  0  0  0  0
 11 49  1  0  0  0  0
 11 50  1  0  0  0  0
 12 13  1  0  0  0  0
 12 18  1  0  0  0  0
 13 14  2  0  0  0  0
 15 16  1  0  0  0  0
 16 51  1  0  0  0  0
 16 52  1  0  0  0  0
 16 53  1  0  0  0  0
 17 18  1  0  0  0  0
 17 54  1  0  0  0  0
 17 55  1  0  0  0  0
 18 19  1  0  0  0  0
 18 56  1  0  0  0  0
 19 57  1  0  0  0  0
 19 58  1  0  0  0  0
 20 21  1  0  0  0  0
 20 59  1  0  0  0  0
 21 22  2  0  0  0  0
 21 26  1  0  0  0  0
 22 23  1  0  0  0  0
 23 24  2  0  0  0  0
 23 28  1  0  0  0  0
 24 25  1  0  0  0  0
 24 27  1  0  0  0  0
 25 26  2  0  0  0  0
 25 60  1  0  0  0  0
 28 29  1  0  0  0  0
 28 61  1  0  0  0  0
 29 30  2  0  0  0  0
 29 34  1  0  0  0  0
 30 31  1  0  0  0  0
 30 35  1  0  0  0  0
 31 32  2  0  0  0  0
 31 62  1  0  0  0  0
 32 33  1  0  0  0  0
 32 63  1  0  0  0  0
 33 34  2  0  0  0  0
 33 64  1  0  0  0  0
 34 65  1  0  0  0  0
 35 36  1  0  0  0  0
 35 37  2  0  0  0  0
 35 38  2  0  0  0  0
 36 39  1  0  0  0  0
 36 40  1  0  0  0  0
 36 66  1  0  0  0  0
 39 67  1  0  0  0  0
 39 68  1  0  0  0  0
 39 69  1  0  0  0  0
 40 70  1  0  0  0  0
 40 71  1  0  0  0  0
 40 72  1  0  0  0  0
 41 42  1  0  0  0  0
 41 73  1  0  0  0  0
 41 74  1  0  0  0  0
 42 43  1  0  0  0  0
 42 75  1  0  0  0  0
 42 76  1  0  0  0  0
 43 44  1  0  0  0  0
 43 77  1  0  0  0  0
 43 78  1  0  0  0  0
 44 45  1  0  0  0  0
 45 79  1  0  0  0  0
 45 80  1  0  0  0  0
 45 81  1  0  0  0  0
M  END
> <From>
www.bindingDB.org

> <BindingDB Reactant_set_id>
226258

> <Ligand InChI>
InChI=1S/C31H36ClN7O5S/c1-18(2)45(42,43)27-10-6-5-8-23(27)34-28-22(32)14-33-31(36-28)35-24-13-21-19(12-26(24)44-4)15-39(29(21)40)20-16-38(17-20)30(41)25-9-7-11-37(25)3/h5-6,8,10,12-14,18,20,25H,7,9,11,15-17H2,1-4H3,(H2,33,34,35,36)/t25-/m0/s1

> <Ligand InChI Key>
LSNNXCASBUIHMF-VWLOTQADSA-N

> <BindingDB MonomerID>
107045

> <BindingDB Ligand Name>
US8592432, 20

> <Target Name Assigned by Curator or DataSource>
ALK tyrosine kinase receptor

> <Target Source Organism According to Curator or DataSource>
Homo sapiens

> <Ki (nM)>


> <IC50 (nM)>
 5

> <Kd (nM)>


> <EC50 (nM)>


> <kon (M-1-s-1)>


> <koff (s-1)>


> <pH>


> <Temp C>


> <Curation/DataSource>
US Patent

> <Article DOI>


> <PMID>


> <PubChem AID>


> <Patent Number>
US8592432

> <Authors>
Chen, B; Jiang, T; Marsilje, TH; Michellys, P; Nguyen, TN; Pei, W; Wu, B; Gao, Z; Ge, Y; Huang, C; Li, Y; Zhu, X

> <Institution>
TBA

> <Link to Ligand in BindingDB>
http://www.bindingdb.org/bind/chemsearch/marvin/MolStructure.jsp?monomerid=107045

> <Link to Ligand-Target Pair in BindingDB>
http://www.bindingdb.org/jsp/dbsearch/PrimarySearch_ki.jsp?energyterm=kJ/mole&tag=pol&polymerid=5809&target=ALK+tyrosine+kinase+receptor&column=ki&startPg=0&Increment=50&submit=Search

> <Link to Ligand-Target Pair in BindingDB>
http://www.bindingdb.org/jsp/dbsearch/PrimarySearch_ki.jsp?energyterm=kJ/mole&tag=r21&monomerid=107045&enzyme=ALK+tyrosine+kinase+receptor&column=ki&startPg=0&Increment=50&submit=Search

> <Ligand HET ID in PDB>


> <PDB ID(s) for Ligand-Target Complex>


> <PubChem CID>
44467752

> <PubChem SID>
175444492

> <ChEBI ID of Ligand>


> <ChEMBL ID of Ligand>


> <DrugBank ID of Ligand>


> <IUPHAR_GRAC ID of Ligand>


> <KEGG ID of Ligand>


> <ZINC ID of Ligand>
ZINC96177901

> <Number of Protein Chains in Target (>1 implies a multichain complex)>
1

> <BindingDB Target Chain Sequence>
MGAIGLLWLLPLLLSTAAVGSGMGTGQRAGSPAAGPPLQPREPLSYSRLQRKSLAVDFVVPSLFRVYARDLLLPPSSSELKAGRPEARGSLALDCAPLLRLLGPAPGVSWTAGSPAPAEARTLSRVLKGGSVRKLRRAKQLVLELGEEAILEGCVGPPGEAAVGLLQFNLSELFSWWIRQGEGRLRIRLMPEKKASEVGREGRLSAAIRASQPRLLFQIFGTGHSSLESPTNMPSPSPDYFTWNLTWIMKDSFPFLSHRSRYGLECSFDFPCELEYSPPLHDLRNQSWSWRRIPSEEASQMDLLDGPGAERSKEMPRGSFLLLNTSADSKHTILSPWMRSSSEHCTLAVSVHRHLQPSGRYIAQLLPHNEAAREILLMPTPGKHGWTVLQGRIGRPDNPFRVALEYISSGNRSLSAVDFFALKNCSEGTSPGSKMALQSSFTCWNGTVLQLGQACDFHQDCAQGEDESQMCRKLPVGFYCNFEDGFCGWTQGTLSPHTPQWQVRTLKDARFQDHQDHALLLSTTDVPASESATVTSATFPAPIKSSPCELRMSWLIRGVLRGNVSLVLVENKTGKEQGRMVWHVAAYEGLSLWQWMVLPLLDVSDRFWLQMVAWWGQGSRAIVAFDNISISLDCYLTISGEDKILQNTAPKSRNLFERNPNKELKPGENSPRQTPIFDPTVHWLFTTCGASGPHGPTQAQCNNAYQNSNLSVEVGSEGPLKGIQIWKVPATDTYSISGYGAAGGKGGKNTMMRSHGVSVLGIFNLEKDDMLYILVGQQGEDACPSTNQLIQKVCIGENNVIEEEIRVNRSVHEWAGGGGGGGGATYVFKMKDGVPVPLIIAAGGGGRAYGAKTDTFHPERLENNSSVLGLNGNSGAAGGGGGWNDNTSLLWAGKSLQEGATGGHSCPQAMKKWGWETRGGFGGGGGGCSSGGGGGGYIGGNAASNNDPEMDGEDGVSFISPLGILYTPALKVMEGHGEVNIKHYLNCSHCEVDECHMDPESHKVICFCDHGTVLAEDGVSCIVSPTPEPHLPLSLILSVVTSALVAALVLAFSGIMIVYRRKHQELQAMQMELQSPEYKLSKLRTSTIMTDYNPNYCFAGKTSSISDLKEVPRKNITLIRGLGHGAFGEVYEGQVSGMPNDPSPLQVAVKTLPEVCSEQDELDFLMEALIISKFNHQNIVRCIGVSLQSLPRFILLELMAGGDLKSFLRETRPRPSQPSSLAMLDLLHVARDIACGCQYLEENHFIHRDIAARNCLLTCPGPGRVAKIGDFGMARDIYRASYYRKGGCAMLPVKWMPPEAFMEGIFTSKTDTWSFGVLLWEIFSLGYMPYPSKSNQEVLEFVTSGGRMDPPKNCPGPVYRIMTQCWQHQPEDRPNFAIILERIEYCTQDPDVINTALPIEYGPLVEEEEKVPVRPKDPEGVPPLLVSQQAKREEERSPAAPPPLPTTSSGKAAKKPTAAEISVRVPRGPAVEGGHVNMAFSQSNPPSELHKVHGSRNKPTSLWNPTYGSWFTEKPTKKNNPIAKKEPHDRGNLGLEGSCTVPPNVATGRLPGASLLLEPSSLTANMKEVPLFRLRHFPCGNVNYGYQQQGLPLEAATAPGAGHYEDTILKSKNSMNQPGP

> <PDB ID(s) of Target Chain>
2XB7,2XBA,3AOX,5FTO,5FTQ,6E0R,6EBW,6EDL,6MX8

> <UniProt (SwissProt) Recommended Name of Target Chain>
ALK tyrosine kinase receptor

> <UniProt (SwissProt) Entry Name of Target Chain>
ALK_HUMAN

> <UniProt (SwissProt) Primary ID of Target Chain>
Q9UM73

> <UniProt (SwissProt) Secondary ID(s) of Target Chain>
Q4ZFX9,Q53QQ6,Q53RZ4,Q59FI3,Q9Y4K6

> <UniProt (SwissProt) Alternative ID(s) of Target Chain>


> <UniProt (TrEMBL) Submitted Name of Target Chain>


> <UniProt (TrEMBL) Entry Name of Target Chain>


> <UniProt (TrEMBL) Primary ID of Target Chain>


> <UniProt (TrEMBL) Secondary ID(s) of Target Chain>


> <UniProt (TrEMBL) Alternative ID(s) of Target Chain>


$$$$
00064001.cdx

Vconf v2.0 Academic SN VC001-00000579
 44 48  0  0  0  0  0  0  0  0999 V2000
   -1.4289   -1.2376    0.0000 C   0  0  0  0  0  0  0  0  0  0  0
   -1.4289   -2.0626    0.0000 C   0  0  0  0  0  0  0  0  0  0  0
   -0.7145   -2.4750    0.0000 N   0  0  0  0  0  0  0  0  0  0  0
    0.0000   -2.0626    0.0000 C   0  0  0  0  0  0  0  0  0  0  0
    0.0000   -1.2376    0.0000 N   0  0  0  0  0  0  0  0  0  0  0
   -0.7145   -0.8250    0.0000 C   0  0  0  0  0  0  0  0  0  0  0
   -2.1434   -0.8250    0.0000 Cl  0  0  0  0  0  0  0  0  0  0  0
   -0.7145    0.0000    0.0000 N   0  0  0  0  0  0  0  0  0  0  0
   -1.4289    0.4126    0.0000 C   0  0  0  0  0  0  0  0  0  0  0
   -1.4289    1.2376    0.0000 C   0  0  0  0  0  0  0  0  0  0  0
   -2.1434    1.6500    0.0000 C   0  0  0  0  0  0  0  0  0  0  0
   -2.8579    1.2376    0.0000 C   0  0  0  0  0  0  0  0  0  0  0
   -2.8579    0.4126    0.0000 C   0  0  0  0  0  0  0  0  0  0  0
   -2.1434    0.0000    0.0000 C   0  0  0  0  0  0  0  0  0  0  0
   -0.7145    1.6500    0.0000 O   0  0  0  0  0  0  0  0  0  0  0
   -3.5724    1.6500    0.0000 N   0  0  0  0  0  0  0  0  0  0  0
   -3.5724    2.4750    0.0000 C   0  0  0  0  0  0  0  0  0  0  0
   -4.2868    2.8876    0.0000 C   0  0  0  0  0  0  0  0  0  0  0
   -5.0014    2.4750    0.0000 N   0  0  0  0  0  0  0  0  0  0  0
   -5.0014    1.6500    0.0000 C   0  0  0  0  0  0  0  0  0  0  0
   -4.2868    1.2376    0.0000 C   0  0  0  0  0  0  0  0  0  0  0
   -5.7159    2.8876    0.0000 C   0  0  0  0  0  0  0  0  0  0  0
    0.7145   -2.4750    0.0000 N   0  0  0  0  0  0  0  0  0  0  0
    1.4289   -2.0626    0.0000 C   0  0  0  0  0  0  0  0  0  0  0
    2.1434   -2.4750    0.0000 C   0  0  0  0  0  0  0  0  0  0  0
    2.8579   -2.0626    0.0000 C   0  0  0  0  0  0  0  0  0  0  0
    2.8579   -1.2376    0.0000 C   0  0  0  0  0  0  0  0  0  0  0
    2.1434   -0.8250    0.0000 C   0  0  0  0  0  0  0  0  0  0  0
    1.4289   -1.2376    0.0000 C   0  0  0  0  0  0  0  0  0  0  0
    3.5724   -0.8250    0.0000 N   0  0  0  0  0  0  0  0  0  0  0
    4.2868   -1.2376    0.0000 C   0  0  0  0  0  0  0  0  0  0  0
    5.0014   -0.8250    0.0000 C   0  0  0  0  0  0  0  0  0  0  0
    5.0014    0.0000    0.0000 N   0  0  0  0  0  0  0  0  0  0  0
    4.2868    0.4126    0.0000 C   0  0  0  0  0  0  0  0  0  0  0
    3.5724    0.0000    0.0000 C   0  0  0  0  0  0  0  0  0  0  0
    2.1434   -3.3000    0.0000 O   0  0  0  0  0  0  0  0  0  0  0
    5.7159    0.4126    0.0000 C   0  0  0  0  0  0  0  0  0  0  0
   -6.4304    2.4750    0.0000 C   0  0  0  0  0  0  0  0  0  0  0
   -5.7159    3.7126    0.0000 O   0  0  0  0  0  0  0  0  0  0  0
    0.0000    1.2376    0.0000 C   0  0  0  0  0  0  0  0  0  0  0
    0.7145    1.6500    0.0000 C   0  0  0  0  0  0  0  0  0  0  0
    2.8579   -3.7126    0.0000 C   0  0  0  0  0  0  0  0  0  0  0
    6.4304    0.0000    0.0000 C   0  0  0  0  0  0  0  0  0  0  0
    5.7159    1.2376    0.0000 O   0  0  0  0  0  0  0  0  0  0  0
  1  2  4  0  0  0  0
  2  3  4  0  0  0  0
  3  4  4  0  0  0  0
  4  5  4  0  0  0  0
  5  6  4  0  0  0  0
  6  1  4  0  0  0  0
  1  7  1  0  0  0  0
  6  8  1  0  0  0  0
  8  9  1  0  0  0  0
  9 10  4  0  0  0  0
 10 11  4  0  0  0  0
 11 12  4  0  0  0  0
 12 13  4  0  0  0  0
 13 14  4  0  0  0  0
 14  9  4  0  0  0  0
 10 15  1  0  0  0  0
 12 16  1  0  0  0  0
 16 17  1  0  0  0  0
 17 18  1  0  0  0  0
 18 19  1  0  0  0  0
 19 20  1  0  0  0  0
 20 21  1  0  0  0  0
 21 16  1  0  0  0  0
 19 22  1  0  0  0  0
  4 23  1  0  0  0  0
 23 24  1  0  0  0  0
 24 25  4  0  0  0  0
 25 26  4  0  0  0  0
 26 27  4  0  0  0  0
 27 28  4  0  0  0  0
 28 29  4  0  0  0  0
 29 24  4  0  0  0  0
 27 30  1  0  0  0  0
 30 31  1  0  0  0  0
 31 32  1  0  0  0  0
 32 33  1  0  0  0  0
 33 34  1  0  0  0  0
 34 35  1  0  0  0  0
 35 30  1  0  0  0  0
 25 36  1  0  0  0  0
 33 37  1  0  0  0  0
 22 38  1  0  0  0  0
 22 39  2  0  0  0  0
 15 40  1  0  0  0  0
 40 41  1  0  0  0  0
 36 42  1  0  0  0  0
 37 43  1  0  0  0  0
 37 44  2  0  0  0  0
M  END
> <From>
www.bindingDB.org

> <BindingDB Reactant_set_id>
345675

> <Ligand InChI>
InChI=1S/C31H39ClN8O4/c1-5-44-29-19-24(40-16-12-38(13-17-40)22(3)42)7-9-27(29)34-30-25(32)20-33-31(36-30)35-26-8-6-23(18-28(26)43-4)39-14-10-37(11-15-39)21(2)41/h6-9,18-20H,5,10-17H2,1-4H3,(H2,33,34,35,36)

> <Ligand InChI Key>
DELRTZGGHPGAOX-UHFFFAOYSA-N

> <BindingDB MonomerID>
193419

> <BindingDB Ligand Name>
US9199944, 1

> <Target Name Assigned by Curator or DataSource>
ALK tyrosine kinase receptor

> <Target Source Organism According to Curator or DataSource>
Homo sapiens

> <Ki (nM)>


> <IC50 (nM)>
 25

> <Kd (nM)>


> <EC50 (nM)>


> <kon (M-1-s-1)>


> <koff (s-1)>


> <pH>


> <Temp C>
25.00

> <Curation/DataSource>
US Patent

> <Article DOI>


> <PMID>


> <PubChem AID>


> <Patent Number>
US9199944

> <Authors>
Lee, K; Kim, HR; Park, CH; Lee, CO; Lee, JK; Jung, HJ; Cho, SY; Chae, CH; Choi, SU; Ha, JD

> <Institution>
KOREA RESEARCH INSTITUTE OF CHEMICAL TECHNOLOGY

> <Link to Ligand in BindingDB>
http://www.bindingdb.org/bind/chemsearch/marvin/MolStructure.jsp?monomerid=193419

> <Link to Ligand-Target Pair in BindingDB>
http://www.bindingdb.org/jsp/dbsearch/PrimarySearch_ki.jsp?energyterm=kJ/mole&tag=pol&polymerid=5809&target=ALK+tyrosine+kinase+receptor&column=ki&startPg=0&Increment=50&submit=Search

> <Link to Ligand-Target Pair in BindingDB>
http://www.bindingdb.org/jsp/dbsearch/PrimarySearch_ki.jsp?energyterm=kJ/mole&tag=r21&monomerid=193419&enzyme=ALK+tyrosine+kinase+receptor&column=ki&startPg=0&Increment=50&submit=Search

> <Ligand HET ID in PDB>


> <PDB ID(s) for Ligand-Target Complex>


> <PubChem CID>
72546716

> <PubChem SID>
317230739

> <ChEBI ID of Ligand>


> <ChEMBL ID of Ligand>


> <DrugBank ID of Ligand>


> <IUPHAR_GRAC ID of Ligand>


> <KEGG ID of Ligand>


> <ZINC ID of Ligand>


> <Number of Protein Chains in Target (>1 implies a multichain complex)>
1

> <BindingDB Target Chain Sequence>
MGAIGLLWLLPLLLSTAAVGSGMGTGQRAGSPAAGPPLQPREPLSYSRLQRKSLAVDFVVPSLFRVYARDLLLPPSSSELKAGRPEARGSLALDCAPLLRLLGPAPGVSWTAGSPAPAEARTLSRVLKGGSVRKLRRAKQLVLELGEEAILEGCVGPPGEAAVGLLQFNLSELFSWWIRQGEGRLRIRLMPEKKASEVGREGRLSAAIRASQPRLLFQIFGTGHSSLESPTNMPSPSPDYFTWNLTWIMKDSFPFLSHRSRYGLECSFDFPCELEYSPPLHDLRNQSWSWRRIPSEEASQMDLLDGPGAERSKEMPRGSFLLLNTSADSKHTILSPWMRSSSEHCTLAVSVHRHLQPSGRYIAQLLPHNEAAREILLMPTPGKHGWTVLQGRIGRPDNPFRVALEYISSGNRSLSAVDFFALKNCSEGTSPGSKMALQSSFTCWNGTVLQLGQACDFHQDCAQGEDESQMCRKLPVGFYCNFEDGFCGWTQGTLSPHTPQWQVRTLKDARFQDHQDHALLLSTTDVPASESATVTSATFPAPIKSSPCELRMSWLIRGVLRGNVSLVLVENKTGKEQGRMVWHVAAYEGLSLWQWMVLPLLDVSDRFWLQMVAWWGQGSRAIVAFDNISISLDCYLTISGEDKILQNTAPKSRNLFERNPNKELKPGENSPRQTPIFDPTVHWLFTTCGASGPHGPTQAQCNNAYQNSNLSVEVGSEGPLKGIQIWKVPATDTYSISGYGAAGGKGGKNTMMRSHGVSVLGIFNLEKDDMLYILVGQQGEDACPSTNQLIQKVCIGENNVIEEEIRVNRSVHEWAGGGGGGGGATYVFKMKDGVPVPLIIAAGGGGRAYGAKTDTFHPERLENNSSVLGLNGNSGAAGGGGGWNDNTSLLWAGKSLQEGATGGHSCPQAMKKWGWETRGGFGGGGGGCSSGGGGGGYIGGNAASNNDPEMDGEDGVSFISPLGILYTPALKVMEGHGEVNIKHYLNCSHCEVDECHMDPESHKVICFCDHGTVLAEDGVSCIVSPTPEPHLPLSLILSVVTSALVAALVLAFSGIMIVYRRKHQELQAMQMELQSPEYKLSKLRTSTIMTDYNPNYCFAGKTSSISDLKEVPRKNITLIRGLGHGAFGEVYEGQVSGMPNDPSPLQVAVKTLPEVCSEQDELDFLMEALIISKFNHQNIVRCIGVSLQSLPRFILLELMAGGDLKSFLRETRPRPSQPSSLAMLDLLHVARDIACGCQYLEENHFIHRDIAARNCLLTCPGPGRVAKIGDFGMARDIYRASYYRKGGCAMLPVKWMPPEAFMEGIFTSKTDTWSFGVLLWEIFSLGYMPYPSKSNQEVLEFVTSGGRMDPPKNCPGPVYRIMTQCWQHQPEDRPNFAIILERIEYCTQDPDVINTALPIEYGPLVEEEEKVPVRPKDPEGVPPLLVSQQAKREEERSPAAPPPLPTTSSGKAAKKPTAAEISVRVPRGPAVEGGHVNMAFSQSNPPSELHKVHGSRNKPTSLWNPTYGSWFTEKPTKKNNPIAKKEPHDRGNLGLEGSCTVPPNVATGRLPGASLLLEPSSLTANMKEVPLFRLRHFPCGNVNYGYQQQGLPLEAATAPGAGHYEDTILKSKNSMNQPGP

> <PDB ID(s) of Target Chain>
2XB7,2XBA,3AOX,5FTO,5FTQ,6E0R,6EBW,6EDL,6MX8

> <UniProt (SwissProt) Recommended Name of Target Chain>
ALK tyrosine kinase receptor

> <UniProt (SwissProt) Entry Name of Target Chain>
ALK_HUMAN

> <UniProt (SwissProt) Primary ID of Target Chain>
Q9UM73

> <UniProt (SwissProt) Secondary ID(s) of Target Chain>
Q4ZFX9,Q53QQ6,Q53RZ4,Q59FI3,Q9Y4K6

> <UniProt (SwissProt) Alternative ID(s) of Target Chain>


> <UniProt (TrEMBL) Submitted Name of Target Chain>


> <UniProt (TrEMBL) Entry Name of Target Chain>


> <UniProt (TrEMBL) Primary ID of Target Chain>


> <UniProt (TrEMBL) Secondary ID(s) of Target Chain>


> <UniProt (TrEMBL) Alternative ID(s) of Target Chain>


$$$$
00065001.cdx

Vconf v2.0 Academic SN VC001-00000579
 45 49  0  0  0  0  0  0  0  0999 V2000
   -1.4289   -1.2376    0.0000 C   0  0  0  0  0  0  0  0  0  0  0
   -1.4289   -2.0626    0.0000 C   0  0  0  0  0  0  0  0  0  0  0
   -0.7145   -2.4750    0.0000 N   0  0  0  0  0  0  0  0  0  0  0
    0.0000   -2.0626    0.0000 C   0  0  0  0  0  0  0  0  0  0  0
    0.0000   -1.2376    0.0000 N   0  0  0  0  0  0  0  0  0  0  0
   -0.7145   -0.8250    0.0000 C   0  0  0  0  0  0  0  0  0  0  0
   -2.1434   -0.8250    0.0000 Cl  0  0  0  0  0  0  0  0  0  0  0
   -0.7145    0.0000    0.0000 N   0  0  0  0  0  0  0  0  0  0  0
   -1.4289    0.4126    0.0000 C   0  0  0  0  0  0  0  0  0  0  0
   -1.4289    1.2376    0.0000 C   0  0  0  0  0  0  0  0  0  0  0
   -2.1434    1.6500    0.0000 C   0  0  0  0  0  0  0  0  0  0  0
   -2.8579    1.2376    0.0000 C   0  0  0  0  0  0  0  0  0  0  0
   -2.8579    0.4126    0.0000 C   0  0  0  0  0  0  0  0  0  0  0
   -2.1434    0.0000    0.0000 C   0  0  0  0  0  0  0  0  0  0  0
   -0.7145    1.6500    0.0000 O   0  0  0  0  0  0  0  0  0  0  0
   -3.5724    1.6500    0.0000 N   0  0  0  0  0  0  0  0  0  0  0
   -3.5724    2.4750    0.0000 C   0  0  0  0  0  0  0  0  0  0  0
   -4.2868    2.8876    0.0000 C   0  0  0  0  0  0  0  0  0  0  0
   -5.0014    2.4750    0.0000 N   0  0  0  0  0  0  0  0  0  0  0
   -5.0014    1.6500    0.0000 C   0  0  0  0  0  0  0  0  0  0  0
   -4.2868    1.2376    0.0000 C   0  0  0  0  0  0  0  0  0  0  0
   -5.7159    2.8876    0.0000 C   0  0  0  0  0  0  0  0  0  0  0
    0.7145   -2.4750    0.0000 N   0  0  0  0  0  0  0  0  0  0  0
    1.4289   -2.0626    0.0000 C   0  0  0  0  0  0  0  0  0  0  0
    2.1434   -2.4750    0.0000 C   0  0  0  0  0  0  0  0  0  0  0
    2.8579   -2.0626    0.0000 C   0  0  0  0  0  0  0  0  0  0  0
    2.8579   -1.2376    0.0000 C   0  0  0  0  0  0  0  0  0  0  0
    2.1434   -0.8250    0.0000 C   0  0  0  0  0  0  0  0  0  0  0
    1.4289   -1.2376    0.0000 C   0  0  0  0  0  0  0  0  0  0  0
    3.5724   -0.8250    0.0000 N   0  0  0  0  0  0  0  0  0  0  0
    4.2868   -1.2376    0.0000 C   0  0  0  0  0  0  0  0  0  0  0
    5.0014   -0.8250    0.0000 C   0  0  0  0  0  0  0  0  0  0  0
    5.0014    0.0000    0.0000 N   0  0  0  0  0  0  0  0  0  0  0
    4.2868    0.4126    0.0000 C   0  0  0  0  0  0  0  0  0  0  0
    3.5724    0.0000    0.0000 C   0  0  0  0  0  0  0  0  0  0  0
    2.1434   -3.3000    0.0000 O   0  0  0  0  0  0  0  0  0  0  0
    5.7159    0.4126    0.0000 C   0  0  0  0  0  0  0  0  0  0  0
   -6.4304    2.4750    0.0000 C   0  0  0  0  0  0  0  0  0  0  0
   -5.7159    3.7126    0.0000 O   0  0  0  0  0  0  0  0  0  0  0
    0.0000    1.2376    0.0000 C   0  0  0  0  0  0  0  0  0  0  0
    0.7145    1.6500    0.0000 C   0  0  0  0  0  0  0  0  0  0  0
    2.8579   -3.7126    0.0000 C   0  0  0  0  0  0  0  0  0  0  0
    6.4304    0.0000    0.0000 C   0  0  0  0  0  0  0  0  0  0  0
    5.7159    1.2376    0.0000 O   0  0  0  0  0  0  0  0  0  0  0
    1.4289    1.2376    0.0000 C   0  0  0  0  0  0  0  0  0  0  0
  1  2  4  0  0  0  0
  2  3  4  0  0  0  0
  3  4  4  0  0  0  0
  4  5  4  0  0  0  0
  5  6  4  0  0  0  0
  6  1  4  0  0  0  0
  1  7  1  0  0  0  0
  6  8  1  0  0  0  0
  8  9  1  0  0  0  0
  9 10  4  0  0  0  0
 10 11  4  0  0  0  0
 11 12  4  0  0  0  0
 12 13  4  0  0  0  0
 13 14  4  0  0  0  0
 14  9  4  0  0  0  0
 10 15  1  0  0  0  0
 12 16  1  0  0  0  0
 16 17  1  0  0  0  0
 17 18  1  0  0  0  0
 18 19  1  0  0  0  0
 19 20  1  0  0  0  0
 20 21  1  0  0  0  0
 21 16  1  0  0  0  0
 19 22  1  0  0  0  0
  4 23  1  0  0  0  0
 23 24  1  0  0  0  0
 24 25  4  0  0  0  0
 25 26  4  0  0  0  0
 26 27  4  0  0  0  0
 27 28  4  0  0  0  0
 28 29  4  0  0  0  0
 29 24  4  0  0  0  0
 27 30  1  0  0  0  0
 30 31  1  0  0  0  0
 31 32  1  0  0  0  0
 32 33  1  0  0  0  0
 33 34  1  0  0  0  0
 34 35  1  0  0  0  0
 35 30  1  0  0  0  0
 25 36  1  0  0  0  0
 33 37  1  0  0  0  0
 22 38  1  0  0  0  0
 22 39  2  0  0  0  0
 15 40  1  0  0  0  0
 40 41  1  0  0  0  0
 36 42  1  0  0  0  0
 37 43  1  0  0  0  0
 37 44  2  0  0  0  0
 41 45  1  0  0  0  0
M  END
> <From>
www.bindingDB.org

> <BindingDB Reactant_set_id>
345676

> <Ligand InChI>
InChI=1S/C32H41ClN8O4/c1-5-18-45-30-20-25(41-16-12-39(13-17-41)23(3)43)7-9-28(30)35-31-26(33)21-34-32(37-31)36-27-8-6-24(19-29(27)44-4)40-14-10-38(11-15-40)22(2)42/h6-9,19-21H,5,10-18H2,1-4H3,(H2,34,35,36,37)

> <Ligand InChI Key>
SNIVBCMQLZLTKZ-UHFFFAOYSA-N

> <BindingDB MonomerID>
193420

> <BindingDB Ligand Name>
US9199944, 2

> <Target Name Assigned by Curator or DataSource>
ALK tyrosine kinase receptor

> <Target Source Organism According to Curator or DataSource>
Homo sapiens

> <Ki (nM)>


> <IC50 (nM)>
 38

> <Kd (nM)>


> <EC50 (nM)>


> <kon (M-1-s-1)>


> <koff (s-1)>


> <pH>


> <Temp C>
25.00

> <Curation/DataSource>
US Patent

> <Article DOI>


> <PMID>


> <PubChem AID>


> <Patent Number>
US9199944

> <Authors>
Lee, K; Kim, HR; Park, CH; Lee, CO; Lee, JK; Jung, HJ; Cho, SY; Chae, CH; Choi, SU; Ha, JD

> <Institution>
KOREA RESEARCH INSTITUTE OF CHEMICAL TECHNOLOGY

> <Link to Ligand in BindingDB>
http://www.bindingdb.org/bind/chemsearch/marvin/MolStructure.jsp?monomerid=193420

> <Link to Ligand-Target Pair in BindingDB>
http://www.bindingdb.org/jsp/dbsearch/PrimarySearch_ki.jsp?energyterm=kJ/mole&tag=pol&polymerid=5809&target=ALK+tyrosine+kinase+receptor&column=ki&startPg=0&Increment=50&submit=Search

> <Link to Ligand-Target Pair in BindingDB>
http://www.bindingdb.org/jsp/dbsearch/PrimarySearch_ki.jsp?energyterm=kJ/mole&tag=r21&monomerid=193420&enzyme=ALK+tyrosine+kinase+receptor&column=ki&startPg=0&Increment=50&submit=Search

> <Ligand HET ID in PDB>


> <PDB ID(s) for Ligand-Target Complex>


> <PubChem CID>
72546717

> <PubChem SID>
317230740

> <ChEBI ID of Ligand>


> <ChEMBL ID of Ligand>


> <DrugBank ID of Ligand>


> <IUPHAR_GRAC ID of Ligand>


> <KEGG ID of Ligand>


> <ZINC ID of Ligand>


> <Number of Protein Chains in Target (>1 implies a multichain complex)>
1

> <BindingDB Target Chain Sequence>
MGAIGLLWLLPLLLSTAAVGSGMGTGQRAGSPAAGPPLQPREPLSYSRLQRKSLAVDFVVPSLFRVYARDLLLPPSSSELKAGRPEARGSLALDCAPLLRLLGPAPGVSWTAGSPAPAEARTLSRVLKGGSVRKLRRAKQLVLELGEEAILEGCVGPPGEAAVGLLQFNLSELFSWWIRQGEGRLRIRLMPEKKASEVGREGRLSAAIRASQPRLLFQIFGTGHSSLESPTNMPSPSPDYFTWNLTWIMKDSFPFLSHRSRYGLECSFDFPCELEYSPPLHDLRNQSWSWRRIPSEEASQMDLLDGPGAERSKEMPRGSFLLLNTSADSKHTILSPWMRSSSEHCTLAVSVHRHLQPSGRYIAQLLPHNEAAREILLMPTPGKHGWTVLQGRIGRPDNPFRVALEYISSGNRSLSAVDFFALKNCSEGTSPGSKMALQSSFTCWNGTVLQLGQACDFHQDCAQGEDESQMCRKLPVGFYCNFEDGFCGWTQGTLSPHTPQWQVRTLKDARFQDHQDHALLLSTTDVPASESATVTSATFPAPIKSSPCELRMSWLIRGVLRGNVSLVLVENKTGKEQGRMVWHVAAYEGLSLWQWMVLPLLDVSDRFWLQMVAWWGQGSRAIVAFDNISISLDCYLTISGEDKILQNTAPKSRNLFERNPNKELKPGENSPRQTPIFDPTVHWLFTTCGASGPHGPTQAQCNNAYQNSNLSVEVGSEGPLKGIQIWKVPATDTYSISGYGAAGGKGGKNTMMRSHGVSVLGIFNLEKDDMLYILVGQQGEDACPSTNQLIQKVCIGENNVIEEEIRVNRSVHEWAGGGGGGGGATYVFKMKDGVPVPLIIAAGGGGRAYGAKTDTFHPERLENNSSVLGLNGNSGAAGGGGGWNDNTSLLWAGKSLQEGATGGHSCPQAMKKWGWETRGGFGGGGGGCSSGGGGGGYIGGNAASNNDPEMDGEDGVSFISPLGILYTPALKVMEGHGEVNIKHYLNCSHCEVDECHMDPESHKVICFCDHGTVLAEDGVSCIVSPTPEPHLPLSLILSVVTSALVAALVLAFSGIMIVYRRKHQELQAMQMELQSPEYKLSKLRTSTIMTDYNPNYCFAGKTSSISDLKEVPRKNITLIRGLGHGAFGEVYEGQVSGMPNDPSPLQVAVKTLPEVCSEQDELDFLMEALIISKFNHQNIVRCIGVSLQSLPRFILLELMAGGDLKSFLRETRPRPSQPSSLAMLDLLHVARDIACGCQYLEENHFIHRDIAARNCLLTCPGPGRVAKIGDFGMARDIYRASYYRKGGCAMLPVKWMPPEAFMEGIFTSKTDTWSFGVLLWEIFSLGYMPYPSKSNQEVLEFVTSGGRMDPPKNCPGPVYRIMTQCWQHQPEDRPNFAIILERIEYCTQDPDVINTALPIEYGPLVEEEEKVPVRPKDPEGVPPLLVSQQAKREEERSPAAPPPLPTTSSGKAAKKPTAAEISVRVPRGPAVEGGHVNMAFSQSNPPSELHKVHGSRNKPTSLWNPTYGSWFTEKPTKKNNPIAKKEPHDRGNLGLEGSCTVPPNVATGRLPGASLLLEPSSLTANMKEVPLFRLRHFPCGNVNYGYQQQGLPLEAATAPGAGHYEDTILKSKNSMNQPGP

> <PDB ID(s) of Target Chain>
2XB7,2XBA,3AOX,5FTO,5FTQ,6E0R,6EBW,6EDL,6MX8

> <UniProt (SwissProt) Recommended Name of Target Chain>
ALK tyrosine kinase receptor

> <UniProt (SwissProt) Entry Name of Target Chain>
ALK_HUMAN

> <UniProt (SwissProt) Primary ID of Target Chain>
Q9UM73

> <UniProt (SwissProt) Secondary ID(s) of Target Chain>
Q4ZFX9,Q53QQ6,Q53RZ4,Q59FI3,Q9Y4K6

> <UniProt (SwissProt) Alternative ID(s) of Target Chain>


> <UniProt (TrEMBL) Submitted Name of Target Chain>


> <UniProt (TrEMBL) Entry Name of Target Chain>


> <UniProt (TrEMBL) Primary ID of Target Chain>


> <UniProt (TrEMBL) Secondary ID(s) of Target Chain>


> <UniProt (TrEMBL) Alternative ID(s) of Target Chain>


$$$$
00066001.cdx

Vconf v2.0 Academic SN VC001-00000579
 45 49  0  0  0  0  0  0  0  0999 V2000
   -1.4289   -1.2375    0.0000 C   0  0  0  0  0  0  0  0  0  0  0
   -1.4289   -2.0625    0.0000 C   0  0  0  0  0  0  0  0  0  0  0
   -0.7144   -2.4749    0.0000 N   0  0  0  0  0  0  0  0  0  0  0
    0.0000   -2.0625    0.0000 C   0  0  0  0  0  0  0  0  0  0  0
    0.0000   -1.2375    0.0000 N   0  0  0  0  0  0  0  0  0  0  0
   -0.7144   -0.8250    0.0000 C   0  0  0  0  0  0  0  0  0  0  0
   -2.1433   -0.8250    0.0000 Cl  0  0  0  0  0  0  0  0  0  0  0
   -0.7144    0.0000    0.0000 N   0  0  0  0  0  0  0  0  0  0  0
   -1.4289    0.4125    0.0000 C   0  0  0  0  0  0  0  0  0  0  0
   -1.4289    1.2375    0.0000 C   0  0  0  0  0  0  0  0  0  0  0
   -2.1433    1.6499    0.0000 C   0  0  0  0  0  0  0  0  0  0  0
   -2.8578    1.2375    0.0000 C   0  0  0  0  0  0  0  0  0  0  0
   -2.8578    0.4125    0.0000 C   0  0  0  0  0  0  0  0  0  0  0
   -2.1433    0.0000    0.0000 C   0  0  0  0  0  0  0  0  0  0  0
   -0.7144    1.6499    0.0000 O   0  0  0  0  0  0  0  0  0  0  0
   -3.5722    1.6499    0.0000 N   0  0  0  0  0  0  0  0  0  0  0
   -3.5722    2.4749    0.0000 C   0  0  0  0  0  0  0  0  0  0  0
   -4.2867    2.8874    0.0000 C   0  0  0  0  0  0  0  0  0  0  0
   -5.0012    2.4749    0.0000 N   0  0  0  0  0  0  0  0  0  0  0
   -5.0012    1.6499    0.0000 C   0  0  0  0  0  0  0  0  0  0  0
   -4.2867    1.2375    0.0000 C   0  0  0  0  0  0  0  0  0  0  0
   -5.7157    2.8874    0.0000 C   0  0  0  0  0  0  0  0  0  0  0
    0.7144   -2.4749    0.0000 N   0  0  0  0  0  0  0  0  0  0  0
    1.4289   -2.0625    0.0000 C   0  0  0  0  0  0  0  0  0  0  0
    2.1433   -2.4749    0.0000 C   0  0  0  0  0  0  0  0  0  0  0
    2.8578   -2.0625    0.0000 C   0  0  0  0  0  0  0  0  0  0  0
    2.8578   -1.2375    0.0000 C   0  0  0  0  0  0  0  0  0  0  0
    2.1433   -0.8250    0.0000 C   0  0  0  0  0  0  0  0  0  0  0
    1.4289   -1.2375    0.0000 C   0  0  0  0  0  0  0  0  0  0  0
    3.5722   -0.8250    0.0000 N   0  0  0  0  0  0  0  0  0  0  0
    4.2867   -1.2375    0.0000 C   0  0  0  0  0  0  0  0  0  0  0
    5.0012   -0.8250    0.0000 C   0  0  0  0  0  0  0  0  0  0  0
    5.0012    0.0000    0.0000 N   0  0  0  0  0  0  0  0  0  0  0
    4.2867    0.4125    0.0000 C   0  0  0  0  0  0  0  0  0  0  0
    3.5722    0.0000    0.0000 C   0  0  0  0  0  0  0  0  0  0  0
    2.1433   -3.2999    0.0000 O   0  0  0  0  0  0  0  0  0  0  0
    5.7157    0.4125    0.0000 C   0  0  0  0  0  0  0  0  0  0  0
   -6.4301    2.4749    0.0000 C   0  0  0  0  0  0  0  0  0  0  0
   -5.7157    3.7124    0.0000 O   0  0  0  0  0  0  0  0  0  0  0
    0.0000    1.2375    0.0000 C   0  0  0  0  0  0  0  0  0  0  0
    0.7144    1.6499    0.0000 C   0  0  0  0  0  0  0  0  0  0  0
    2.8578   -3.7124    0.0000 C   0  0  0  0  0  0  0  0  0  0  0
    6.4301    0.0000    0.0000 C   0  0  0  0  0  0  0  0  0  0  0
    5.7157    1.2375    0.0000 O   0  0  0  0  0  0  0  0  0  0  0
    0.5834    0.6541    0.0000 C   0  0  0  0  0  0  0  0  0  0  0
  1  2  4  0  0  0  0
  2  3  4  0  0  0  0
  3  4  4  0  0  0  0
  4  5  4  0  0  0  0
  5  6  4  0  0  0  0
  6  1  4  0  0  0  0
  1  7  1  0  0  0  0
  6  8  1  0  0  0  0
  8  9  1  0  0  0  0
  9 10  4  0  0  0  0
 10 11  4  0  0  0  0
 11 12  4  0  0  0  0
 12 13  4  0  0  0  0
 13 14  4  0  0  0  0
 14  9  4  0  0  0  0
 10 15  1  0  0  0  0
 12 16  1  0  0  0  0
 16 17  1  0  0  0  0
 17 18  1  0  0  0  0
 18 19  1  0  0  0  0
 19 20  1  0  0  0  0
 20 21  1  0  0  0  0
 21 16  1  0  0  0  0
 19 22  1  0  0  0  0
  4 23  1  0  0  0  0
 23 24  1  0  0  0  0
 24 25  4  0  0  0  0
 25 26  4  0  0  0  0
 26 27  4  0  0  0  0
 27 28  4  0  0  0  0
 28 29  4  0  0  0  0
 29 24  4  0  0  0  0
 27 30  1  0  0  0  0
 30 31  1  0  0  0  0
 31 32  1  0  0  0  0
 32 33  1  0  0  0  0
 33 34  1  0  0  0  0
 34 35  1  0  0  0  0
 35 30  1  0  0  0  0
 25 36  1  0  0  0  0
 33 37  1  0  0  0  0
 22 38  1  0  0  0  0
 22 39  2  0  0  0  0
 15 40  1  0  0  0  0
 40 41  1  0  0  0  0
 36 42  1  0  0  0  0
 37 43  1  0  0  0  0
 37 44  2  0  0  0  0
 40 45  1  0  0  0  0
M  END
> <From>
www.bindingDB.org

> <BindingDB Reactant_set_id>
345677

> <Ligand InChI>
InChI=1S/C32H41ClN8O4/c1-21(2)45-30-19-25(41-16-12-39(13-17-41)23(4)43)7-9-28(30)35-31-26(33)20-34-32(37-31)36-27-8-6-24(18-29(27)44-5)40-14-10-38(11-15-40)22(3)42/h6-9,18-21H,10-17H2,1-5H3,(H2,34,35,36,37)

> <Ligand InChI Key>
PDKSCLCRONTJLW-UHFFFAOYSA-N

> <BindingDB MonomerID>
193421

> <BindingDB Ligand Name>
US9199944, 3

> <Target Name Assigned by Curator or DataSource>
ALK tyrosine kinase receptor

> <Target Source Organism According to Curator or DataSource>
Homo sapiens

> <Ki (nM)>


> <IC50 (nM)>
 33

> <Kd (nM)>


> <EC50 (nM)>


> <kon (M-1-s-1)>


> <koff (s-1)>


> <pH>


> <Temp C>
25.00

> <Curation/DataSource>
US Patent

> <Article DOI>


> <PMID>


> <PubChem AID>


> <Patent Number>
US9199944

> <Authors>
Lee, K; Kim, HR; Park, CH; Lee, CO; Lee, JK; Jung, HJ; Cho, SY; Chae, CH; Choi, SU; Ha, JD

> <Institution>
KOREA RESEARCH INSTITUTE OF CHEMICAL TECHNOLOGY

> <Link to Ligand in BindingDB>
http://www.bindingdb.org/bind/chemsearch/marvin/MolStructure.jsp?monomerid=193421

> <Link to Ligand-Target Pair in BindingDB>
http://www.bindingdb.org/jsp/dbsearch/PrimarySearch_ki.jsp?energyterm=kJ/mole&tag=pol&polymerid=5809&target=ALK+tyrosine+kinase+receptor&column=ki&startPg=0&Increment=50&submit=Search

> <Link to Ligand-Target Pair in BindingDB>
http://www.bindingdb.org/jsp/dbsearch/PrimarySearch_ki.jsp?energyterm=kJ/mole&tag=r21&monomerid=193421&enzyme=ALK+tyrosine+kinase+receptor&column=ki&startPg=0&Increment=50&submit=Search

> <Ligand HET ID in PDB>


> <PDB ID(s) for Ligand-Target Complex>


> <PubChem CID>
72546718

> <PubChem SID>
317230741

> <ChEBI ID of Ligand>


> <ChEMBL ID of Ligand>


> <DrugBank ID of Ligand>


> <IUPHAR_GRAC ID of Ligand>


> <KEGG ID of Ligand>


> <ZINC ID of Ligand>


> <Number of Protein Chains in Target (>1 implies a multichain complex)>
1

> <BindingDB Target Chain Sequence>
MGAIGLLWLLPLLLSTAAVGSGMGTGQRAGSPAAGPPLQPREPLSYSRLQRKSLAVDFVVPSLFRVYARDLLLPPSSSELKAGRPEARGSLALDCAPLLRLLGPAPGVSWTAGSPAPAEARTLSRVLKGGSVRKLRRAKQLVLELGEEAILEGCVGPPGEAAVGLLQFNLSELFSWWIRQGEGRLRIRLMPEKKASEVGREGRLSAAIRASQPRLLFQIFGTGHSSLESPTNMPSPSPDYFTWNLTWIMKDSFPFLSHRSRYGLECSFDFPCELEYSPPLHDLRNQSWSWRRIPSEEASQMDLLDGPGAERSKEMPRGSFLLLNTSADSKHTILSPWMRSSSEHCTLAVSVHRHLQPSGRYIAQLLPHNEAAREILLMPTPGKHGWTVLQGRIGRPDNPFRVALEYISSGNRSLSAVDFFALKNCSEGTSPGSKMALQSSFTCWNGTVLQLGQACDFHQDCAQGEDESQMCRKLPVGFYCNFEDGFCGWTQGTLSPHTPQWQVRTLKDARFQDHQDHALLLSTTDVPASESATVTSATFPAPIKSSPCELRMSWLIRGVLRGNVSLVLVENKTGKEQGRMVWHVAAYEGLSLWQWMVLPLLDVSDRFWLQMVAWWGQGSRAIVAFDNISISLDCYLTISGEDKILQNTAPKSRNLFERNPNKELKPGENSPRQTPIFDPTVHWLFTTCGASGPHGPTQAQCNNAYQNSNLSVEVGSEGPLKGIQIWKVPATDTYSISGYGAAGGKGGKNTMMRSHGVSVLGIFNLEKDDMLYILVGQQGEDACPSTNQLIQKVCIGENNVIEEEIRVNRSVHEWAGGGGGGGGATYVFKMKDGVPVPLIIAAGGGGRAYGAKTDTFHPERLENNSSVLGLNGNSGAAGGGGGWNDNTSLLWAGKSLQEGATGGHSCPQAMKKWGWETRGGFGGGGGGCSSGGGGGGYIGGNAASNNDPEMDGEDGVSFISPLGILYTPALKVMEGHGEVNIKHYLNCSHCEVDECHMDPESHKVICFCDHGTVLAEDGVSCIVSPTPEPHLPLSLILSVVTSALVAALVLAFSGIMIVYRRKHQELQAMQMELQSPEYKLSKLRTSTIMTDYNPNYCFAGKTSSISDLKEVPRKNITLIRGLGHGAFGEVYEGQVSGMPNDPSPLQVAVKTLPEVCSEQDELDFLMEALIISKFNHQNIVRCIGVSLQSLPRFILLELMAGGDLKSFLRETRPRPSQPSSLAMLDLLHVARDIACGCQYLEENHFIHRDIAARNCLLTCPGPGRVAKIGDFGMARDIYRASYYRKGGCAMLPVKWMPPEAFMEGIFTSKTDTWSFGVLLWEIFSLGYMPYPSKSNQEVLEFVTSGGRMDPPKNCPGPVYRIMTQCWQHQPEDRPNFAIILERIEYCTQDPDVINTALPIEYGPLVEEEEKVPVRPKDPEGVPPLLVSQQAKREEERSPAAPPPLPTTSSGKAAKKPTAAEISVRVPRGPAVEGGHVNMAFSQSNPPSELHKVHGSRNKPTSLWNPTYGSWFTEKPTKKNNPIAKKEPHDRGNLGLEGSCTVPPNVATGRLPGASLLLEPSSLTANMKEVPLFRLRHFPCGNVNYGYQQQGLPLEAATAPGAGHYEDTILKSKNSMNQPGP

> <PDB ID(s) of Target Chain>
2XB7,2XBA,3AOX,5FTO,5FTQ,6E0R,6EBW,6EDL,6MX8

> <UniProt (SwissProt) Recommended Name of Target Chain>
ALK tyrosine kinase receptor

> <UniProt (SwissProt) Entry Name of Target Chain>
ALK_HUMAN

> <UniProt (SwissProt) Primary ID of Target Chain>
Q9UM73

> <UniProt (SwissProt) Secondary ID(s) of Target Chain>
Q4ZFX9,Q53QQ6,Q53RZ4,Q59FI3,Q9Y4K6

> <UniProt (SwissProt) Alternative ID(s) of Target Chain>


> <UniProt (TrEMBL) Submitted Name of Target Chain>


> <UniProt (TrEMBL) Entry Name of Target Chain>


> <UniProt (TrEMBL) Primary ID of Target Chain>


> <UniProt (TrEMBL) Secondary ID(s) of Target Chain>


> <UniProt (TrEMBL) Alternative ID(s) of Target Chain>


$$$$
00067001.cdx

Vconf v2.0 Academic SN VC001-00000579
 43 47  0  0  0  0  0  0  0  0999 V2000
   -1.4289   -1.8562    0.0000 C   0  0  0  0  0  0  0  0  0  0  0
   -1.4289   -2.6812    0.0000 C   0  0  0  0  0  0  0  0  0  0  0
   -0.7144   -3.0937    0.0000 N   0  0  0  0  0  0  0  0  0  0  0
    0.0000   -2.6812    0.0000 C   0  0  0  0  0  0  0  0  0  0  0
    0.0000   -1.8562    0.0000 N   0  0  0  0  0  0  0  0  0  0  0
   -0.7144   -1.4437    0.0000 C   0  0  0  0  0  0  0  0  0  0  0
   -2.1433   -1.4437    0.0000 Cl  0  0  0  0  0  0  0  0  0  0  0
   -0.7144   -0.6187    0.0000 N   0  0  0  0  0  0  0  0  0  0  0
   -1.4289   -0.2063    0.0000 C   0  0  0  0  0  0  0  0  0  0  0
   -1.4289    0.6187    0.0000 C   0  0  0  0  0  0  0  0  0  0  0
   -2.1433    1.0312    0.0000 C   0  0  0  0  0  0  0  0  0  0  0
   -2.8578    0.6187    0.0000 C   0  0  0  0  0  0  0  0  0  0  0
   -2.8578   -0.2063    0.0000 C   0  0  0  0  0  0  0  0  0  0  0
   -2.1433   -0.6187    0.0000 C   0  0  0  0  0  0  0  0  0  0  0
   -0.7144    1.0312    0.0000 O   0  0  0  0  0  0  0  0  0  0  0
   -3.5722    1.0312    0.0000 N   0  0  0  0  0  0  0  0  0  0  0
   -3.5722    1.8562    0.0000 C   0  0  0  0  0  0  0  0  0  0  0
   -4.2867    2.2687    0.0000 C   0  0  0  0  0  0  0  0  0  0  0
   -5.0012    1.8562    0.0000 N   0  0  0  0  0  0  0  0  0  0  0
   -5.0012    1.0312    0.0000 C   0  0  0  0  0  0  0  0  0  0  0
   -4.2867    0.6187    0.0000 C   0  0  0  0  0  0  0  0  0  0  0
   -5.7157    2.2687    0.0000 C   0  0  0  0  0  0  0  0  0  0  0
    0.7144   -3.0937    0.0000 N   0  0  0  0  0  0  0  0  0  0  0
    1.4289   -2.6812    0.0000 C   0  0  0  0  0  0  0  0  0  0  0
    2.1433   -3.0937    0.0000 C   0  0  0  0  0  0  0  0  0  0  0
    2.8578   -2.6812    0.0000 C   0  0  0  0  0  0  0  0  0  0  0
    2.8578   -1.8562    0.0000 C   0  0  0  0  0  0  0  0  0  0  0
    2.1433   -1.4437    0.0000 C   0  0  0  0  0  0  0  0  0  0  0
    1.4289   -1.8562    0.0000 C   0  0  0  0  0  0  0  0  0  0  0
    3.5722   -1.4437    0.0000 N   0  0  0  0  0  0  0  0  0  0  0
    4.2867   -1.8562    0.0000 C   0  0  0  0  0  0  0  0  0  0  0
    5.0012   -1.4437    0.0000 C   0  0  0  0  0  0  0  0  0  0  0
    5.0012   -0.6187    0.0000 N   0  0  0  0  0  0  0  0  0  0  0
    4.2867   -0.2063    0.0000 C   0  0  0  0  0  0  0  0  0  0  0
    3.5722   -0.6187    0.0000 C   0  0  0  0  0  0  0  0  0  0  0
    5.7157   -0.2063    0.0000 C   0  0  0  0  0  0  0  0  0  0  0
   -6.4301    1.8562    0.0000 C   0  0  0  0  0  0  0  0  0  0  0
   -5.7157    3.0937    0.0000 O   0  0  0  0  0  0  0  0  0  0  0
    0.0000    0.6187    0.0000 C   0  0  0  0  0  0  0  0  0  0  0
    0.7144    1.0312    0.0000 C   0  0  0  0  0  0  0  0  0  0  0
    6.4301   -0.6187    0.0000 C   0  0  0  0  0  0  0  0  0  0  0
    5.7157    0.6187    0.0000 O   0  0  0  0  0  0  0  0  0  0  0
    1.4289    0.6187    0.0000 C   0  0  0  0  0  0  0  0  0  0  0
  1  2  4  0  0  0  0
  2  3  4  0  0  0  0
  3  4  4  0  0  0  0
  4  5  4  0  0  0  0
  5  6  4  0  0  0  0
  6  1  4  0  0  0  0
  1  7  1  0  0  0  0
  6  8  1  0  0  0  0
  8  9  1  0  0  0  0
  9 10  4  0  0  0  0
 10 11  4  0  0  0  0
 11 12  4  0  0  0  0
 12 13  4  0  0  0  0
 13 14  4  0  0  0  0
 14  9  4  0  0  0  0
 10 15  1  0  0  0  0
 12 16  1  0  0  0  0
 16 17  1  0  0  0  0
 17 18  1  0  0  0  0
 18 19  1  0  0  0  0
 19 20  1  0  0  0  0
 20 21  1  0  0  0  0
 21 16  1  0  0  0  0
 19 22  1  0  0  0  0
  4 23  1  0  0  0  0
 23 24  1  0  0  0  0
 24 25  4  0  0  0  0
 25 26  4  0  0  0  0
 26 27  4  0  0  0  0
 27 28  4  0  0  0  0
 28 29  4  0  0  0  0
 29 24  4  0  0  0  0
 27 30  1  0  0  0  0
 30 31  1  0  0  0  0
 31 32  1  0  0  0  0
 32 33  1  0  0  0  0
 33 34  1  0  0  0  0
 34 35  1  0  0  0  0
 35 30  1  0  0  0  0
 33 36  1  0  0  0  0
 22 37  1  0  0  0  0
 22 38  2  0  0  0  0
 15 39  1  0  0  0  0
 39 40  1  0  0  0  0
 36 41  1  0  0  0  0
 36 42  2  0  0  0  0
 40 43  1  0  0  0  0
M  END
> <From>
www.bindingDB.org

> <BindingDB Reactant_set_id>
345678

> <Ligand InChI>
InChI=1S/C31H39ClN8O3/c1-4-19-43-29-20-26(40-17-13-38(14-18-40)23(3)42)9-10-28(29)35-30-27(32)21-33-31(36-30)34-24-5-7-25(8-6-24)39-15-11-37(12-16-39)22(2)41/h5-10,20-21H,4,11-19H2,1-3H3,(H2,33,34,35,36)

> <Ligand InChI Key>
YQQGSXITGMKXRL-UHFFFAOYSA-N

> <BindingDB MonomerID>
193422

> <BindingDB Ligand Name>
US9199944, 4

> <Target Name Assigned by Curator or DataSource>
ALK tyrosine kinase receptor

> <Target Source Organism According to Curator or DataSource>
Homo sapiens

> <Ki (nM)>


> <IC50 (nM)>
 150

> <Kd (nM)>


> <EC50 (nM)>


> <kon (M-1-s-1)>


> <koff (s-1)>


> <pH>


> <Temp C>
25.00

> <Curation/DataSource>
US Patent

> <Article DOI>


> <PMID>


> <PubChem AID>


> <Patent Number>
US9199944

> <Authors>
Lee, K; Kim, HR; Park, CH; Lee, CO; Lee, JK; Jung, HJ; Cho, SY; Chae, CH; Choi, SU; Ha, JD

> <Institution>
KOREA RESEARCH INSTITUTE OF CHEMICAL TECHNOLOGY

> <Link to Ligand in BindingDB>
http://www.bindingdb.org/bind/chemsearch/marvin/MolStructure.jsp?monomerid=193422

> <Link to Ligand-Target Pair in BindingDB>
http://www.bindingdb.org/jsp/dbsearch/PrimarySearch_ki.jsp?energyterm=kJ/mole&tag=pol&polymerid=5809&target=ALK+tyrosine+kinase+receptor&column=ki&startPg=0&Increment=50&submit=Search

> <Link to Ligand-Target Pair in BindingDB>
http://www.bindingdb.org/jsp/dbsearch/PrimarySearch_ki.jsp?energyterm=kJ/mole&tag=r21&monomerid=193422&enzyme=ALK+tyrosine+kinase+receptor&column=ki&startPg=0&Increment=50&submit=Search

> <Ligand HET ID in PDB>


> <PDB ID(s) for Ligand-Target Complex>


> <PubChem CID>
118105637

> <PubChem SID>
317230742

> <ChEBI ID of Ligand>


> <ChEMBL ID of Ligand>


> <DrugBank ID of Ligand>


> <IUPHAR_GRAC ID of Ligand>


> <KEGG ID of Ligand>


> <ZINC ID of Ligand>


> <Number of Protein Chains in Target (>1 implies a multichain complex)>
1

> <BindingDB Target Chain Sequence>
MGAIGLLWLLPLLLSTAAVGSGMGTGQRAGSPAAGPPLQPREPLSYSRLQRKSLAVDFVVPSLFRVYARDLLLPPSSSELKAGRPEARGSLALDCAPLLRLLGPAPGVSWTAGSPAPAEARTLSRVLKGGSVRKLRRAKQLVLELGEEAILEGCVGPPGEAAVGLLQFNLSELFSWWIRQGEGRLRIRLMPEKKASEVGREGRLSAAIRASQPRLLFQIFGTGHSSLESPTNMPSPSPDYFTWNLTWIMKDSFPFLSHRSRYGLECSFDFPCELEYSPPLHDLRNQSWSWRRIPSEEASQMDLLDGPGAERSKEMPRGSFLLLNTSADSKHTILSPWMRSSSEHCTLAVSVHRHLQPSGRYIAQLLPHNEAAREILLMPTPGKHGWTVLQGRIGRPDNPFRVALEYISSGNRSLSAVDFFALKNCSEGTSPGSKMALQSSFTCWNGTVLQLGQACDFHQDCAQGEDESQMCRKLPVGFYCNFEDGFCGWTQGTLSPHTPQWQVRTLKDARFQDHQDHALLLSTTDVPASESATVTSATFPAPIKSSPCELRMSWLIRGVLRGNVSLVLVENKTGKEQGRMVWHVAAYEGLSLWQWMVLPLLDVSDRFWLQMVAWWGQGSRAIVAFDNISISLDCYLTISGEDKILQNTAPKSRNLFERNPNKELKPGENSPRQTPIFDPTVHWLFTTCGASGPHGPTQAQCNNAYQNSNLSVEVGSEGPLKGIQIWKVPATDTYSISGYGAAGGKGGKNTMMRSHGVSVLGIFNLEKDDMLYILVGQQGEDACPSTNQLIQKVCIGENNVIEEEIRVNRSVHEWAGGGGGGGGATYVFKMKDGVPVPLIIAAGGGGRAYGAKTDTFHPERLENNSSVLGLNGNSGAAGGGGGWNDNTSLLWAGKSLQEGATGGHSCPQAMKKWGWETRGGFGGGGGGCSSGGGGGGYIGGNAASNNDPEMDGEDGVSFISPLGILYTPALKVMEGHGEVNIKHYLNCSHCEVDECHMDPESHKVICFCDHGTVLAEDGVSCIVSPTPEPHLPLSLILSVVTSALVAALVLAFSGIMIVYRRKHQELQAMQMELQSPEYKLSKLRTSTIMTDYNPNYCFAGKTSSISDLKEVPRKNITLIRGLGHGAFGEVYEGQVSGMPNDPSPLQVAVKTLPEVCSEQDELDFLMEALIISKFNHQNIVRCIGVSLQSLPRFILLELMAGGDLKSFLRETRPRPSQPSSLAMLDLLHVARDIACGCQYLEENHFIHRDIAARNCLLTCPGPGRVAKIGDFGMARDIYRASYYRKGGCAMLPVKWMPPEAFMEGIFTSKTDTWSFGVLLWEIFSLGYMPYPSKSNQEVLEFVTSGGRMDPPKNCPGPVYRIMTQCWQHQPEDRPNFAIILERIEYCTQDPDVINTALPIEYGPLVEEEEKVPVRPKDPEGVPPLLVSQQAKREEERSPAAPPPLPTTSSGKAAKKPTAAEISVRVPRGPAVEGGHVNMAFSQSNPPSELHKVHGSRNKPTSLWNPTYGSWFTEKPTKKNNPIAKKEPHDRGNLGLEGSCTVPPNVATGRLPGASLLLEPSSLTANMKEVPLFRLRHFPCGNVNYGYQQQGLPLEAATAPGAGHYEDTILKSKNSMNQPGP

> <PDB ID(s) of Target Chain>
2XB7,2XBA,3AOX,5FTO,5FTQ,6E0R,6EBW,6EDL,6MX8

> <UniProt (SwissProt) Recommended Name of Target Chain>
ALK tyrosine kinase receptor

> <UniProt (SwissProt) Entry Name of Target Chain>
ALK_HUMAN

> <UniProt (SwissProt) Primary ID of Target Chain>
Q9UM73

> <UniProt (SwissProt) Secondary ID(s) of Target Chain>
Q4ZFX9,Q53QQ6,Q53RZ4,Q59FI3,Q9Y4K6

> <UniProt (SwissProt) Alternative ID(s) of Target Chain>


> <UniProt (TrEMBL) Submitted Name of Target Chain>


> <UniProt (TrEMBL) Entry Name of Target Chain>


> <UniProt (TrEMBL) Primary ID of Target Chain>


> <UniProt (TrEMBL) Secondary ID(s) of Target Chain>


> <UniProt (TrEMBL) Alternative ID(s) of Target Chain>


$$$$
00069001.cdx

Vconf v2.0 Academic SN VC001-00000579
 42 46  0  0  0  0  0  0  0  0999 V2000
   -1.4289   -1.8562    0.0000 C   0  0  0  0  0  0  0  0  0  0  0
   -1.4289   -2.6812    0.0000 C   0  0  0  0  0  0  0  0  0  0  0
   -0.7144   -3.0937    0.0000 N   0  0  0  0  0  0  0  0  0  0  0
    0.0000   -2.6812    0.0000 C   0  0  0  0  0  0  0  0  0  0  0
    0.0000   -1.8562    0.0000 N   0  0  0  0  0  0  0  0  0  0  0
   -0.7144   -1.4437    0.0000 C   0  0  0  0  0  0  0  0  0  0  0
   -2.1433   -1.4437    0.0000 Cl  0  0  0  0  0  0  0  0  0  0  0
   -0.7144   -0.6187    0.0000 N   0  0  0  0  0  0  0  0  0  0  0
   -1.4289   -0.2063    0.0000 C   0  0  0  0  0  0  0  0  0  0  0
   -1.4289    0.6187    0.0000 C   0  0  0  0  0  0  0  0  0  0  0
   -2.1433    1.0312    0.0000 C   0  0  0  0  0  0  0  0  0  0  0
   -2.8578    0.6187    0.0000 C   0  0  0  0  0  0  0  0  0  0  0
   -2.8578   -0.2063    0.0000 C   0  0  0  0  0  0  0  0  0  0  0
   -2.1433   -0.6187    0.0000 C   0  0  0  0  0  0  0  0  0  0  0
   -0.7144    1.0312    0.0000 O   0  0  0  0  0  0  0  0  0  0  0
   -3.5722    1.0312    0.0000 N   0  0  0  0  0  0  0  0  0  0  0
   -3.5722    1.8562    0.0000 C   0  0  0  0  0  0  0  0  0  0  0
   -4.2867    2.2687    0.0000 C   0  0  0  0  0  0  0  0  0  0  0
   -5.0012    1.8562    0.0000 N   0  0  0  0  0  0  0  0  0  0  0
   -5.0012    1.0312    0.0000 C   0  0  0  0  0  0  0  0  0  0  0
   -4.2867    0.6187    0.0000 C   0  0  0  0  0  0  0  0  0  0  0
   -5.7157    2.2687    0.0000 C   0  0  0  0  0  0  0  0  0  0  0
    0.7144   -3.0937    0.0000 N   0  0  0  0  0  0  0  0  0  0  0
    1.4289   -2.6812    0.0000 C   0  0  0  0  0  0  0  0  0  0  0
    2.1433   -3.0937    0.0000 C   0  0  0  0  0  0  0  0  0  0  0
    2.8578   -2.6812    0.0000 C   0  0  0  0  0  0  0  0  0  0  0
    2.8578   -1.8562    0.0000 C   0  0  0  0  0  0  0  0  0  0  0
    2.1433   -1.4437    0.0000 C   0  0  0  0  0  0  0  0  0  0  0
    1.4289   -1.8562    0.0000 C   0  0  0  0  0  0  0  0  0  0  0
    3.5722   -1.4437    0.0000 N   0  0  0  0  0  0  0  0  0  0  0
    4.2867   -1.8562    0.0000 C   0  0  0  0  0  0  0  0  0  0  0
    5.0012   -1.4437    0.0000 C   0  0  0  0  0  0  0  0  0  0  0
    5.0012   -0.6187    0.0000 N   0  0  0  0  0  0  0  0  0  0  0
    4.2867   -0.2063    0.0000 C   0  0  0  0  0  0  0  0  0  0  0
    3.5722   -0.6187    0.0000 C   0  0  0  0  0  0  0  0  0  0  0
    5.7157   -0.2063    0.0000 C   0  0  0  0  0  0  0  0  0  0  0
   -6.4301    1.8562    0.0000 C   0  0  0  0  0  0  0  0  0  0  0
   -5.7157    3.0937    0.0000 O   0  0  0  0  0  0  0  0  0  0  0
    0.0000    0.6187    0.0000 C   0  0  0  0  0  0  0  0  0  0  0
    0.7144    1.0312    0.0000 C   0  0  0  0  0  0  0  0  0  0  0
    6.4301   -0.6187    0.0000 C   0  0  0  0  0  0  0  0  0  0  0
    5.7157    0.6187    0.0000 O   0  0  0  0  0  0  0  0  0  0  0
  1  2  4  0  0  0  0
  2  3  4  0  0  0  0
  3  4  4  0  0  0  0
  4  5  4  0  0  0  0
  5  6  4  0  0  0  0
  6  1  4  0  0  0  0
  1  7  1  0  0  0  0
  6  8  1  0  0  0  0
  8  9  1  0  0  0  0
  9 10  4  0  0  0  0
 10 11  4  0  0  0  0
 11 12  4  0  0  0  0
 12 13  4  0  0  0  0
 13 14  4  0  0  0  0
 14  9  4  0  0  0  0
 10 15  1  0  0  0  0
 12 16  1  0  0  0  0
 16 17  1  0  0  0  0
 17 18  1  0  0  0  0
 18 19  1  0  0  0  0
 19 20  1  0  0  0  0
 20 21  1  0  0  0  0
 21 16  1  0  0  0  0
 19 22  1  0  0  0  0
  4 23  1  0  0  0  0
 23 24  1  0  0  0  0
 24 25  4  0  0  0  0
 25 26  4  0  0  0  0
 26 27  4  0  0  0  0
 27 28  4  0  0  0  0
 28 29  4  0  0  0  0
 29 24  4  0  0  0  0
 27 30  1  0  0  0  0
 30 31  1  0  0  0  0
 31 32  1  0  0  0  0
 32 33  1  0  0  0  0
 33 34  1  0  0  0  0
 34 35  1  0  0  0  0
 35 30  1  0  0  0  0
 33 36  1  0  0  0  0
 22 37  1  0  0  0  0
 22 38  2  0  0  0  0
 15 39  1  0  0  0  0
 39 40  1  0  0  0  0
 36 41  1  0  0  0  0
 36 42  2  0  0  0  0
M  END
> <From>
www.bindingDB.org

> <BindingDB Reactant_set_id>
345680

> <Ligand InChI>
InChI=1S/C30H37ClN8O3/c1-4-42-28-19-25(39-17-13-37(14-18-39)22(3)41)9-10-27(28)34-29-26(31)20-32-30(35-29)33-23-5-7-24(8-6-23)38-15-11-36(12-16-38)21(2)40/h5-10,19-20H,4,11-18H2,1-3H3,(H2,32,33,34,35)

> <Ligand InChI Key>
GOFXDWIAFXEVFE-UHFFFAOYSA-N

> <BindingDB MonomerID>
193424

> <BindingDB Ligand Name>
US9199944, 6

> <Target Name Assigned by Curator or DataSource>
ALK tyrosine kinase receptor

> <Target Source Organism According to Curator or DataSource>
Homo sapiens

> <Ki (nM)>


> <IC50 (nM)>
 65

> <Kd (nM)>


> <EC50 (nM)>


> <kon (M-1-s-1)>


> <koff (s-1)>


> <pH>


> <Temp C>
25.00

> <Curation/DataSource>
US Patent

> <Article DOI>


> <PMID>


> <PubChem AID>


> <Patent Number>
US9199944

> <Authors>
Lee, K; Kim, HR; Park, CH; Lee, CO; Lee, JK; Jung, HJ; Cho, SY; Chae, CH; Choi, SU; Ha, JD

> <Institution>
KOREA RESEARCH INSTITUTE OF CHEMICAL TECHNOLOGY

> <Link to Ligand in BindingDB>
http://www.bindingdb.org/bind/chemsearch/marvin/MolStructure.jsp?monomerid=193424

> <Link to Ligand-Target Pair in BindingDB>
http://www.bindingdb.org/jsp/dbsearch/PrimarySearch_ki.jsp?energyterm=kJ/mole&tag=pol&polymerid=5809&target=ALK+tyrosine+kinase+receptor&column=ki&startPg=0&Increment=50&submit=Search

> <Link to Ligand-Target Pair in BindingDB>
http://www.bindingdb.org/jsp/dbsearch/PrimarySearch_ki.jsp?energyterm=kJ/mole&tag=r21&monomerid=193424&enzyme=ALK+tyrosine+kinase+receptor&column=ki&startPg=0&Increment=50&submit=Search

> <Ligand HET ID in PDB>


> <PDB ID(s) for Ligand-Target Complex>


> <PubChem CID>
118105742

> <PubChem SID>
317230744

> <ChEBI ID of Ligand>


> <ChEMBL ID of Ligand>


> <DrugBank ID of Ligand>


> <IUPHAR_GRAC ID of Ligand>


> <KEGG ID of Ligand>


> <ZINC ID of Ligand>


> <Number of Protein Chains in Target (>1 implies a multichain complex)>
1

> <BindingDB Target Chain Sequence>
MGAIGLLWLLPLLLSTAAVGSGMGTGQRAGSPAAGPPLQPREPLSYSRLQRKSLAVDFVVPSLFRVYARDLLLPPSSSELKAGRPEARGSLALDCAPLLRLLGPAPGVSWTAGSPAPAEARTLSRVLKGGSVRKLRRAKQLVLELGEEAILEGCVGPPGEAAVGLLQFNLSELFSWWIRQGEGRLRIRLMPEKKASEVGREGRLSAAIRASQPRLLFQIFGTGHSSLESPTNMPSPSPDYFTWNLTWIMKDSFPFLSHRSRYGLECSFDFPCELEYSPPLHDLRNQSWSWRRIPSEEASQMDLLDGPGAERSKEMPRGSFLLLNTSADSKHTILSPWMRSSSEHCTLAVSVHRHLQPSGRYIAQLLPHNEAAREILLMPTPGKHGWTVLQGRIGRPDNPFRVALEYISSGNRSLSAVDFFALKNCSEGTSPGSKMALQSSFTCWNGTVLQLGQACDFHQDCAQGEDESQMCRKLPVGFYCNFEDGFCGWTQGTLSPHTPQWQVRTLKDARFQDHQDHALLLSTTDVPASESATVTSATFPAPIKSSPCELRMSWLIRGVLRGNVSLVLVENKTGKEQGRMVWHVAAYEGLSLWQWMVLPLLDVSDRFWLQMVAWWGQGSRAIVAFDNISISLDCYLTISGEDKILQNTAPKSRNLFERNPNKELKPGENSPRQTPIFDPTVHWLFTTCGASGPHGPTQAQCNNAYQNSNLSVEVGSEGPLKGIQIWKVPATDTYSISGYGAAGGKGGKNTMMRSHGVSVLGIFNLEKDDMLYILVGQQGEDACPSTNQLIQKVCIGENNVIEEEIRVNRSVHEWAGGGGGGGGATYVFKMKDGVPVPLIIAAGGGGRAYGAKTDTFHPERLENNSSVLGLNGNSGAAGGGGGWNDNTSLLWAGKSLQEGATGGHSCPQAMKKWGWETRGGFGGGGGGCSSGGGGGGYIGGNAASNNDPEMDGEDGVSFISPLGILYTPALKVMEGHGEVNIKHYLNCSHCEVDECHMDPESHKVICFCDHGTVLAEDGVSCIVSPTPEPHLPLSLILSVVTSALVAALVLAFSGIMIVYRRKHQELQAMQMELQSPEYKLSKLRTSTIMTDYNPNYCFAGKTSSISDLKEVPRKNITLIRGLGHGAFGEVYEGQVSGMPNDPSPLQVAVKTLPEVCSEQDELDFLMEALIISKFNHQNIVRCIGVSLQSLPRFILLELMAGGDLKSFLRETRPRPSQPSSLAMLDLLHVARDIACGCQYLEENHFIHRDIAARNCLLTCPGPGRVAKIGDFGMARDIYRASYYRKGGCAMLPVKWMPPEAFMEGIFTSKTDTWSFGVLLWEIFSLGYMPYPSKSNQEVLEFVTSGGRMDPPKNCPGPVYRIMTQCWQHQPEDRPNFAIILERIEYCTQDPDVINTALPIEYGPLVEEEEKVPVRPKDPEGVPPLLVSQQAKREEERSPAAPPPLPTTSSGKAAKKPTAAEISVRVPRGPAVEGGHVNMAFSQSNPPSELHKVHGSRNKPTSLWNPTYGSWFTEKPTKKNNPIAKKEPHDRGNLGLEGSCTVPPNVATGRLPGASLLLEPSSLTANMKEVPLFRLRHFPCGNVNYGYQQQGLPLEAATAPGAGHYEDTILKSKNSMNQPGP

> <PDB ID(s) of Target Chain>
2XB7,2XBA,3AOX,5FTO,5FTQ,6E0R,6EBW,6EDL,6MX8

> <UniProt (SwissProt) Recommended Name of Target Chain>
ALK tyrosine kinase receptor

> <UniProt (SwissProt) Entry Name of Target Chain>
ALK_HUMAN

> <UniProt (SwissProt) Primary ID of Target Chain>
Q9UM73

> <UniProt (SwissProt) Secondary ID(s) of Target Chain>
Q4ZFX9,Q53QQ6,Q53RZ4,Q59FI3,Q9Y4K6

> <UniProt (SwissProt) Alternative ID(s) of Target Chain>


> <UniProt (TrEMBL) Submitted Name of Target Chain>


> <UniProt (TrEMBL) Entry Name of Target Chain>


> <UniProt (TrEMBL) Primary ID of Target Chain>


> <UniProt (TrEMBL) Secondary ID(s) of Target Chain>


> <UniProt (TrEMBL) Alternative ID(s) of Target Chain>


$$$$
00070001.cdx

Vconf v2.0 Academic SN VC001-00000579
 43 47  0  0  0  0  0  0  0  0999 V2000
   -1.4289   -1.2375    0.0000 C   0  0  0  0  0  0  0  0  0  0  0
   -1.4289   -2.0625    0.0000 C   0  0  0  0  0  0  0  0  0  0  0
   -0.7144   -2.4749    0.0000 N   0  0  0  0  0  0  0  0  0  0  0
    0.0000   -2.0625    0.0000 C   0  0  0  0  0  0  0  0  0  0  0
    0.0000   -1.2375    0.0000 N   0  0  0  0  0  0  0  0  0  0  0
   -0.7144   -0.8250    0.0000 C   0  0  0  0  0  0  0  0  0  0  0
   -2.1433   -0.8250    0.0000 Cl  0  0  0  0  0  0  0  0  0  0  0
   -0.7144    0.0000    0.0000 N   0  0  0  0  0  0  0  0  0  0  0
   -1.4289    0.4125    0.0000 C   0  0  0  0  0  0  0  0  0  0  0
   -1.4289    1.2375    0.0000 C   0  0  0  0  0  0  0  0  0  0  0
   -2.1433    1.6499    0.0000 C   0  0  0  0  0  0  0  0  0  0  0
   -2.8578    1.2375    0.0000 C   0  0  0  0  0  0  0  0  0  0  0
   -2.8578    0.4125    0.0000 C   0  0  0  0  0  0  0  0  0  0  0
   -2.1433    0.0000    0.0000 C   0  0  0  0  0  0  0  0  0  0  0
   -0.7144    1.6499    0.0000 O   0  0  0  0  0  0  0  0  0  0  0
   -3.5722    1.6499    0.0000 N   0  0  0  0  0  0  0  0  0  0  0
   -3.5722    2.4749    0.0000 C   0  0  0  0  0  0  0  0  0  0  0
   -4.2867    2.8874    0.0000 C   0  0  0  0  0  0  0  0  0  0  0
   -5.0012    2.4749    0.0000 N   0  0  0  0  0  0  0  0  0  0  0
   -5.0012    1.6499    0.0000 C   0  0  0  0  0  0  0  0  0  0  0
   -4.2867    1.2375    0.0000 C   0  0  0  0  0  0  0  0  0  0  0
   -5.7157    2.8874    0.0000 C   0  0  0  0  0  0  0  0  0  0  0
    0.7144   -2.4749    0.0000 N   0  0  0  0  0  0  0  0  0  0  0
    1.4289   -2.0625    0.0000 C   0  0  0  0  0  0  0  0  0  0  0
    2.1433   -2.4749    0.0000 C   0  0  0  0  0  0  0  0  0  0  0
    2.8578   -2.0625    0.0000 C   0  0  0  0  0  0  0  0  0  0  0
    2.8578   -1.2375    0.0000 C   0  0  0  0  0  0  0  0  0  0  0
    2.1433   -0.8250    0.0000 C   0  0  0  0  0  0  0  0  0  0  0
    1.4289   -1.2375    0.0000 C   0  0  0  0  0  0  0  0  0  0  0
    3.5722   -0.8250    0.0000 N   0  0  0  0  0  0  0  0  0  0  0
    4.2867   -1.2375    0.0000 C   0  0  0  0  0  0  0  0  0  0  0
    5.0012   -0.8250    0.0000 C   0  0  0  0  0  0  0  0  0  0  0
    5.0012    0.0000    0.0000 N   0  0  0  0  0  0  0  0  0  0  0
    4.2867    0.4125    0.0000 C   0  0  0  0  0  0  0  0  0  0  0
    3.5722    0.0000    0.0000 C   0  0  0  0  0  0  0  0  0  0  0
    2.1433   -3.2999    0.0000 O   0  0  0  0  0  0  0  0  0  0  0
    5.7157    0.4125    0.0000 C   0  0  0  0  0  0  0  0  0  0  0
   -6.4301    2.4749    0.0000 C   0  0  0  0  0  0  0  0  0  0  0
   -5.7157    3.7124    0.0000 O   0  0  0  0  0  0  0  0  0  0  0
    0.0000    1.2375    0.0000 C   0  0  0  0  0  0  0  0  0  0  0
    2.8578   -3.7124    0.0000 C   0  0  0  0  0  0  0  0  0  0  0
    6.4301    0.0000    0.0000 C   0  0  0  0  0  0  0  0  0  0  0
    5.7157    1.2375    0.0000 O   0  0  0  0  0  0  0  0  0  0  0
  1  2  4  0  0  0  0
  2  3  4  0  0  0  0
  3  4  4  0  0  0  0
  4  5  4  0  0  0  0
  5  6  4  0  0  0  0
  6  1  4  0  0  0  0
  1  7  1  0  0  0  0
  6  8  1  0  0  0  0
  8  9  1  0  0  0  0
  9 10  4  0  0  0  0
 10 11  4  0  0  0  0
 11 12  4  0  0  0  0
 12 13  4  0  0  0  0
 13 14  4  0  0  0  0
 14  9  4  0  0  0  0
 10 15  1  0  0  0  0
 12 16  1  0  0  0  0
 16 17  1  0  0  0  0
 17 18  1  0  0  0  0
 18 19  1  0  0  0  0
 19 20  1  0  0  0  0
 20 21  1  0  0  0  0
 21 16  1  0  0  0  0
 19 22  1  0  0  0  0
  4 23  1  0  0  0  0
 23 24  1  0  0  0  0
 24 25  4  0  0  0  0
 25 26  4  0  0  0  0
 26 27  4  0  0  0  0
 27 28  4  0  0  0  0
 28 29  4  0  0  0  0
 29 24  4  0  0  0  0
 27 30  1  0  0  0  0
 30 31  1  0  0  0  0
 31 32  1  0  0  0  0
 32 33  1  0  0  0  0
 33 34  1  0  0  0  0
 34 35  1  0  0  0  0
 35 30  1  0  0  0  0
 25 36  1  0  0  0  0
 33 37  1  0  0  0  0
 22 38  1  0  0  0  0
 22 39  2  0  0  0  0
 15 40  1  0  0  0  0
 36 41  1  0  0  0  0
 37 42  1  0  0  0  0
 37 43  2  0  0  0  0
M  END
> <From>
www.bindingDB.org

> <BindingDB Reactant_set_id>
345681

> <Ligand InChI>
InChI=1S/C30H37ClN8O4/c1-20(40)36-9-13-38(14-10-36)22-5-7-25(27(17-22)42-3)33-29-24(31)19-32-30(35-29)34-26-8-6-23(18-28(26)43-4)39-15-11-37(12-16-39)21(2)41/h5-8,17-19H,9-16H2,1-4H3,(H2,32,33,34,35)

> <Ligand InChI Key>
TXDIRJCYNAWBOS-UHFFFAOYSA-N

> <BindingDB MonomerID>
193425

> <BindingDB Ligand Name>
US9199944, 7

> <Target Name Assigned by Curator or DataSource>
ALK tyrosine kinase receptor

> <Target Source Organism According to Curator or DataSource>
Homo sapiens

> <Ki (nM)>


> <IC50 (nM)>
 12

> <Kd (nM)>


> <EC50 (nM)>


> <kon (M-1-s-1)>


> <koff (s-1)>


> <pH>


> <Temp C>
25.00

> <Curation/DataSource>
US Patent

> <Article DOI>


> <PMID>


> <PubChem AID>


> <Patent Number>
US9199944

> <Authors>
Lee, K; Kim, HR; Park, CH; Lee, CO; Lee, JK; Jung, HJ; Cho, SY; Chae, CH; Choi, SU; Ha, JD

> <Institution>
KOREA RESEARCH INSTITUTE OF CHEMICAL TECHNOLOGY

> <Link to Ligand in BindingDB>
http://www.bindingdb.org/bind/chemsearch/marvin/MolStructure.jsp?monomerid=193425

> <Link to Ligand-Target Pair in BindingDB>
http://www.bindingdb.org/jsp/dbsearch/PrimarySearch_ki.jsp?energyterm=kJ/mole&tag=pol&polymerid=5809&target=ALK+tyrosine+kinase+receptor&column=ki&startPg=0&Increment=50&submit=Search

> <Link to Ligand-Target Pair in BindingDB>
http://www.bindingdb.org/jsp/dbsearch/PrimarySearch_ki.jsp?energyterm=kJ/mole&tag=r21&monomerid=193425&enzyme=ALK+tyrosine+kinase+receptor&column=ki&startPg=0&Increment=50&submit=Search

> <Ligand HET ID in PDB>


> <PDB ID(s) for Ligand-Target Complex>


> <PubChem CID>
72547474

> <PubChem SID>
317230745

> <ChEBI ID of Ligand>


> <ChEMBL ID of Ligand>


> <DrugBank ID of Ligand>


> <IUPHAR_GRAC ID of Ligand>


> <KEGG ID of Ligand>


> <ZINC ID of Ligand>


> <Number of Protein Chains in Target (>1 implies a multichain complex)>
1

> <BindingDB Target Chain Sequence>
MGAIGLLWLLPLLLSTAAVGSGMGTGQRAGSPAAGPPLQPREPLSYSRLQRKSLAVDFVVPSLFRVYARDLLLPPSSSELKAGRPEARGSLALDCAPLLRLLGPAPGVSWTAGSPAPAEARTLSRVLKGGSVRKLRRAKQLVLELGEEAILEGCVGPPGEAAVGLLQFNLSELFSWWIRQGEGRLRIRLMPEKKASEVGREGRLSAAIRASQPRLLFQIFGTGHSSLESPTNMPSPSPDYFTWNLTWIMKDSFPFLSHRSRYGLECSFDFPCELEYSPPLHDLRNQSWSWRRIPSEEASQMDLLDGPGAERSKEMPRGSFLLLNTSADSKHTILSPWMRSSSEHCTLAVSVHRHLQPSGRYIAQLLPHNEAAREILLMPTPGKHGWTVLQGRIGRPDNPFRVALEYISSGNRSLSAVDFFALKNCSEGTSPGSKMALQSSFTCWNGTVLQLGQACDFHQDCAQGEDESQMCRKLPVGFYCNFEDGFCGWTQGTLSPHTPQWQVRTLKDARFQDHQDHALLLSTTDVPASESATVTSATFPAPIKSSPCELRMSWLIRGVLRGNVSLVLVENKTGKEQGRMVWHVAAYEGLSLWQWMVLPLLDVSDRFWLQMVAWWGQGSRAIVAFDNISISLDCYLTISGEDKILQNTAPKSRNLFERNPNKELKPGENSPRQTPIFDPTVHWLFTTCGASGPHGPTQAQCNNAYQNSNLSVEVGSEGPLKGIQIWKVPATDTYSISGYGAAGGKGGKNTMMRSHGVSVLGIFNLEKDDMLYILVGQQGEDACPSTNQLIQKVCIGENNVIEEEIRVNRSVHEWAGGGGGGGGATYVFKMKDGVPVPLIIAAGGGGRAYGAKTDTFHPERLENNSSVLGLNGNSGAAGGGGGWNDNTSLLWAGKSLQEGATGGHSCPQAMKKWGWETRGGFGGGGGGCSSGGGGGGYIGGNAASNNDPEMDGEDGVSFISPLGILYTPALKVMEGHGEVNIKHYLNCSHCEVDECHMDPESHKVICFCDHGTVLAEDGVSCIVSPTPEPHLPLSLILSVVTSALVAALVLAFSGIMIVYRRKHQELQAMQMELQSPEYKLSKLRTSTIMTDYNPNYCFAGKTSSISDLKEVPRKNITLIRGLGHGAFGEVYEGQVSGMPNDPSPLQVAVKTLPEVCSEQDELDFLMEALIISKFNHQNIVRCIGVSLQSLPRFILLELMAGGDLKSFLRETRPRPSQPSSLAMLDLLHVARDIACGCQYLEENHFIHRDIAARNCLLTCPGPGRVAKIGDFGMARDIYRASYYRKGGCAMLPVKWMPPEAFMEGIFTSKTDTWSFGVLLWEIFSLGYMPYPSKSNQEVLEFVTSGGRMDPPKNCPGPVYRIMTQCWQHQPEDRPNFAIILERIEYCTQDPDVINTALPIEYGPLVEEEEKVPVRPKDPEGVPPLLVSQQAKREEERSPAAPPPLPTTSSGKAAKKPTAAEISVRVPRGPAVEGGHVNMAFSQSNPPSELHKVHGSRNKPTSLWNPTYGSWFTEKPTKKNNPIAKKEPHDRGNLGLEGSCTVPPNVATGRLPGASLLLEPSSLTANMKEVPLFRLRHFPCGNVNYGYQQQGLPLEAATAPGAGHYEDTILKSKNSMNQPGP

> <PDB ID(s) of Target Chain>
2XB7,2XBA,3AOX,5FTO,5FTQ,6E0R,6EBW,6EDL,6MX8

> <UniProt (SwissProt) Recommended Name of Target Chain>
ALK tyrosine kinase receptor

> <UniProt (SwissProt) Entry Name of Target Chain>
ALK_HUMAN

> <UniProt (SwissProt) Primary ID of Target Chain>
Q9UM73

> <UniProt (SwissProt) Secondary ID(s) of Target Chain>
Q4ZFX9,Q53QQ6,Q53RZ4,Q59FI3,Q9Y4K6

> <UniProt (SwissProt) Alternative ID(s) of Target Chain>


> <UniProt (TrEMBL) Submitted Name of Target Chain>


> <UniProt (TrEMBL) Entry Name of Target Chain>


> <UniProt (TrEMBL) Primary ID of Target Chain>


> <UniProt (TrEMBL) Secondary ID(s) of Target Chain>


> <UniProt (TrEMBL) Alternative ID(s) of Target Chain>


$$$$
00071001.cdx

Vconf v2.0 Academic SN VC001-00000579
 41 45  0  0  0  0  0  0  0  0999 V2000
   -1.4289   -1.2375    0.0000 C   0  0  0  0  0  0  0  0  0  0  0
   -1.4289   -2.0625    0.0000 C   0  0  0  0  0  0  0  0  0  0  0
   -0.7144   -2.4749    0.0000 N   0  0  0  0  0  0  0  0  0  0  0
    0.0000   -2.0625    0.0000 C   0  0  0  0  0  0  0  0  0  0  0
    0.0000   -1.2375    0.0000 N   0  0  0  0  0  0  0  0  0  0  0
   -0.7144   -0.8250    0.0000 C   0  0  0  0  0  0  0  0  0  0  0
   -2.1433   -0.8250    0.0000 Cl  0  0  0  0  0  0  0  0  0  0  0
   -0.7144    0.0000    0.0000 N   0  0  0  0  0  0  0  0  0  0  0
   -1.4289    0.4125    0.0000 C   0  0  0  0  0  0  0  0  0  0  0
   -1.4289    1.2375    0.0000 C   0  0  0  0  0  0  0  0  0  0  0
   -2.1433    1.6499    0.0000 C   0  0  0  0  0  0  0  0  0  0  0
   -2.8578    1.2375    0.0000 C   0  0  0  0  0  0  0  0  0  0  0
   -2.8578    0.4125    0.0000 C   0  0  0  0  0  0  0  0  0  0  0
   -2.1433    0.0000    0.0000 C   0  0  0  0  0  0  0  0  0  0  0
   -3.5722    1.6499    0.0000 N   0  0  0  0  0  0  0  0  0  0  0
   -3.5722    2.4749    0.0000 C   0  0  0  0  0  0  0  0  0  0  0
   -4.2867    2.8874    0.0000 C   0  0  0  0  0  0  0  0  0  0  0
   -5.0012    2.4749    0.0000 N   0  0  0  0  0  0  0  0  0  0  0
   -5.0012    1.6499    0.0000 C   0  0  0  0  0  0  0  0  0  0  0
   -4.2867    1.2375    0.0000 C   0  0  0  0  0  0  0  0  0  0  0
   -5.7157    2.8874    0.0000 C   0  0  0  0  0  0  0  0  0  0  0
    0.7144   -2.4749    0.0000 N   0  0  0  0  0  0  0  0  0  0  0
    1.4289   -2.0625    0.0000 C   0  0  0  0  0  0  0  0  0  0  0
    2.1433   -2.4749    0.0000 C   0  0  0  0  0  0  0  0  0  0  0
    2.8578   -2.0625    0.0000 C   0  0  0  0  0  0  0  0  0  0  0
    2.8578   -1.2375    0.0000 C   0  0  0  0  0  0  0  0  0  0  0
    2.1433   -0.8250    0.0000 C   0  0  0  0  0  0  0  0  0  0  0
    1.4289   -1.2375    0.0000 C   0  0  0  0  0  0  0  0  0  0  0
    3.5722   -0.8250    0.0000 N   0  0  0  0  0  0  0  0  0  0  0
    4.2867   -1.2375    0.0000 C   0  0  0  0  0  0  0  0  0  0  0
    5.0012   -0.8250    0.0000 C   0  0  0  0  0  0  0  0  0  0  0
    5.0012    0.0000    0.0000 N   0  0  0  0  0  0  0  0  0  0  0
    4.2867    0.4125    0.0000 C   0  0  0  0  0  0  0  0  0  0  0
    3.5722    0.0000    0.0000 C   0  0  0  0  0  0  0  0  0  0  0
    2.1433   -3.2999    0.0000 O   0  0  0  0  0  0  0  0  0  0  0
    5.7157    0.4125    0.0000 C   0  0  0  0  0  0  0  0  0  0  0
   -6.4301    2.4749    0.0000 C   0  0  0  0  0  0  0  0  0  0  0
   -5.7157    3.7124    0.0000 O   0  0  0  0  0  0  0  0  0  0  0
    2.8578   -3.7124    0.0000 C   0  0  0  0  0  0  0  0  0  0  0
    6.4301    0.0000    0.0000 C   0  0  0  0  0  0  0  0  0  0  0
    5.7157    1.2375    0.0000 O   0  0  0  0  0  0  0  0  0  0  0
  1  2  4  0  0  0  0
  2  3  4  0  0  0  0
  3  4  4  0  0  0  0
  4  5  4  0  0  0  0
  5  6  4  0  0  0  0
  6  1  4  0  0  0  0
  1  7  1  0  0  0  0
  6  8  1  0  0  0  0
  8  9  1  0  0  0  0
  9 10  4  0  0  0  0
 10 11  4  0  0  0  0
 11 12  4  0  0  0  0
 12 13  4  0  0  0  0
 13 14  4  0  0  0  0
 14  9  4  0  0  0  0
 12 15  1  0  0  0  0
 15 16  1  0  0  0  0
 16 17  1  0  0  0  0
 17 18  1  0  0  0  0
 18 19  1  0  0  0  0
 19 20  1  0  0  0  0
 20 15  1  0  0  0  0
 18 21  1  0  0  0  0
  4 22  1  0  0  0  0
 22 23  1  0  0  0  0
 23 24  4  0  0  0  0
 24 25  4  0  0  0  0
 25 26  4  0  0  0  0
 26 27  4  0  0  0  0
 27 28  4  0  0  0  0
 28 23  4  0  0  0  0
 26 29  1  0  0  0  0
 29 30  1  0  0  0  0
 30 31  1  0  0  0  0
 31 32  1  0  0  0  0
 32 33  1  0  0  0  0
 33 34  1  0  0  0  0
 34 29  1  0  0  0  0
 24 35  1  0  0  0  0
 32 36  1  0  0  0  0
 21 37  1  0  0  0  0
 21 38  2  0  0  0  0
 35 39  1  0  0  0  0
 36 40  1  0  0  0  0
 36 41  2  0  0  0  0
M  END
> <From>
www.bindingDB.org

> <BindingDB Reactant_set_id>
345682

> <Ligand InChI>
InChI=1S/C29H35ClN8O3/c1-20(39)35-10-14-37(15-11-35)23-6-4-22(5-7-23)32-28-25(30)19-31-29(34-28)33-26-9-8-24(18-27(26)41-3)38-16-12-36(13-17-38)21(2)40/h4-9,18-19H,10-17H2,1-3H3,(H2,31,32,33,34)

> <Ligand InChI Key>
FRUHCLCFNORCDU-UHFFFAOYSA-N

> <BindingDB MonomerID>
193426

> <BindingDB Ligand Name>
US9199944, 8

> <Target Name Assigned by Curator or DataSource>
ALK tyrosine kinase receptor

> <Target Source Organism According to Curator or DataSource>
Homo sapiens

> <Ki (nM)>


> <IC50 (nM)>
 64

> <Kd (nM)>


> <EC50 (nM)>


> <kon (M-1-s-1)>


> <koff (s-1)>


> <pH>


> <Temp C>
25.00

> <Curation/DataSource>
US Patent

> <Article DOI>


> <PMID>


> <PubChem AID>


> <Patent Number>
US9199944

> <Authors>
Lee, K; Kim, HR; Park, CH; Lee, CO; Lee, JK; Jung, HJ; Cho, SY; Chae, CH; Choi, SU; Ha, JD

> <Institution>
KOREA RESEARCH INSTITUTE OF CHEMICAL TECHNOLOGY

> <Link to Ligand in BindingDB>
http://www.bindingdb.org/bind/chemsearch/marvin/MolStructure.jsp?monomerid=193426

> <Link to Ligand-Target Pair in BindingDB>
http://www.bindingdb.org/jsp/dbsearch/PrimarySearch_ki.jsp?energyterm=kJ/mole&tag=pol&polymerid=5809&target=ALK+tyrosine+kinase+receptor&column=ki&startPg=0&Increment=50&submit=Search

> <Link to Ligand-Target Pair in BindingDB>
http://www.bindingdb.org/jsp/dbsearch/PrimarySearch_ki.jsp?energyterm=kJ/mole&tag=r21&monomerid=193426&enzyme=ALK+tyrosine+kinase+receptor&column=ki&startPg=0&Increment=50&submit=Search

> <Ligand HET ID in PDB>


> <PDB ID(s) for Ligand-Target Complex>


> <PubChem CID>
72546475

> <PubChem SID>
317230746

> <ChEBI ID of Ligand>


> <ChEMBL ID of Ligand>


> <DrugBank ID of Ligand>


> <IUPHAR_GRAC ID of Ligand>


> <KEGG ID of Ligand>


> <ZINC ID of Ligand>


> <Number of Protein Chains in Target (>1 implies a multichain complex)>
1

> <BindingDB Target Chain Sequence>
MGAIGLLWLLPLLLSTAAVGSGMGTGQRAGSPAAGPPLQPREPLSYSRLQRKSLAVDFVVPSLFRVYARDLLLPPSSSELKAGRPEARGSLALDCAPLLRLLGPAPGVSWTAGSPAPAEARTLSRVLKGGSVRKLRRAKQLVLELGEEAILEGCVGPPGEAAVGLLQFNLSELFSWWIRQGEGRLRIRLMPEKKASEVGREGRLSAAIRASQPRLLFQIFGTGHSSLESPTNMPSPSPDYFTWNLTWIMKDSFPFLSHRSRYGLECSFDFPCELEYSPPLHDLRNQSWSWRRIPSEEASQMDLLDGPGAERSKEMPRGSFLLLNTSADSKHTILSPWMRSSSEHCTLAVSVHRHLQPSGRYIAQLLPHNEAAREILLMPTPGKHGWTVLQGRIGRPDNPFRVALEYISSGNRSLSAVDFFALKNCSEGTSPGSKMALQSSFTCWNGTVLQLGQACDFHQDCAQGEDESQMCRKLPVGFYCNFEDGFCGWTQGTLSPHTPQWQVRTLKDARFQDHQDHALLLSTTDVPASESATVTSATFPAPIKSSPCELRMSWLIRGVLRGNVSLVLVENKTGKEQGRMVWHVAAYEGLSLWQWMVLPLLDVSDRFWLQMVAWWGQGSRAIVAFDNISISLDCYLTISGEDKILQNTAPKSRNLFERNPNKELKPGENSPRQTPIFDPTVHWLFTTCGASGPHGPTQAQCNNAYQNSNLSVEVGSEGPLKGIQIWKVPATDTYSISGYGAAGGKGGKNTMMRSHGVSVLGIFNLEKDDMLYILVGQQGEDACPSTNQLIQKVCIGENNVIEEEIRVNRSVHEWAGGGGGGGGATYVFKMKDGVPVPLIIAAGGGGRAYGAKTDTFHPERLENNSSVLGLNGNSGAAGGGGGWNDNTSLLWAGKSLQEGATGGHSCPQAMKKWGWETRGGFGGGGGGCSSGGGGGGYIGGNAASNNDPEMDGEDGVSFISPLGILYTPALKVMEGHGEVNIKHYLNCSHCEVDECHMDPESHKVICFCDHGTVLAEDGVSCIVSPTPEPHLPLSLILSVVTSALVAALVLAFSGIMIVYRRKHQELQAMQMELQSPEYKLSKLRTSTIMTDYNPNYCFAGKTSSISDLKEVPRKNITLIRGLGHGAFGEVYEGQVSGMPNDPSPLQVAVKTLPEVCSEQDELDFLMEALIISKFNHQNIVRCIGVSLQSLPRFILLELMAGGDLKSFLRETRPRPSQPSSLAMLDLLHVARDIACGCQYLEENHFIHRDIAARNCLLTCPGPGRVAKIGDFGMARDIYRASYYRKGGCAMLPVKWMPPEAFMEGIFTSKTDTWSFGVLLWEIFSLGYMPYPSKSNQEVLEFVTSGGRMDPPKNCPGPVYRIMTQCWQHQPEDRPNFAIILERIEYCTQDPDVINTALPIEYGPLVEEEEKVPVRPKDPEGVPPLLVSQQAKREEERSPAAPPPLPTTSSGKAAKKPTAAEISVRVPRGPAVEGGHVNMAFSQSNPPSELHKVHGSRNKPTSLWNPTYGSWFTEKPTKKNNPIAKKEPHDRGNLGLEGSCTVPPNVATGRLPGASLLLEPSSLTANMKEVPLFRLRHFPCGNVNYGYQQQGLPLEAATAPGAGHYEDTILKSKNSMNQPGP

> <PDB ID(s) of Target Chain>
2XB7,2XBA,3AOX,5FTO,5FTQ,6E0R,6EBW,6EDL,6MX8

> <UniProt (SwissProt) Recommended Name of Target Chain>
ALK tyrosine kinase receptor

> <UniProt (SwissProt) Entry Name of Target Chain>
ALK_HUMAN

> <UniProt (SwissProt) Primary ID of Target Chain>
Q9UM73

> <UniProt (SwissProt) Secondary ID(s) of Target Chain>
Q4ZFX9,Q53QQ6,Q53RZ4,Q59FI3,Q9Y4K6

> <UniProt (SwissProt) Alternative ID(s) of Target Chain>


> <UniProt (TrEMBL) Submitted Name of Target Chain>


> <UniProt (TrEMBL) Entry Name of Target Chain>


> <UniProt (TrEMBL) Primary ID of Target Chain>


> <UniProt (TrEMBL) Secondary ID(s) of Target Chain>


> <UniProt (TrEMBL) Alternative ID(s) of Target Chain>


$$$$
00073001.cdx

Vconf v2.0 Academic SN VC001-00000579
 41 45  0  0  0  0  0  0  0  0999 V2000
   -1.4289   -1.8562    0.0000 C   0  0  0  0  0  0  0  0  0  0  0
   -1.4289   -2.6812    0.0000 C   0  0  0  0  0  0  0  0  0  0  0
   -0.7144   -3.0937    0.0000 N   0  0  0  0  0  0  0  0  0  0  0
    0.0000   -2.6812    0.0000 C   0  0  0  0  0  0  0  0  0  0  0
    0.0000   -1.8562    0.0000 N   0  0  0  0  0  0  0  0  0  0  0
   -0.7144   -1.4437    0.0000 C   0  0  0  0  0  0  0  0  0  0  0
   -2.1433   -1.4437    0.0000 Cl  0  0  0  0  0  0  0  0  0  0  0
   -0.7144   -0.6187    0.0000 N   0  0  0  0  0  0  0  0  0  0  0
   -1.4289   -0.2063    0.0000 C   0  0  0  0  0  0  0  0  0  0  0
   -1.4289    0.6187    0.0000 C   0  0  0  0  0  0  0  0  0  0  0
   -2.1433    1.0312    0.0000 C   0  0  0  0  0  0  0  0  0  0  0
   -2.8578    0.6187    0.0000 C   0  0  0  0  0  0  0  0  0  0  0
   -2.8578   -0.2063    0.0000 C   0  0  0  0  0  0  0  0  0  0  0
   -2.1433   -0.6187    0.0000 C   0  0  0  0  0  0  0  0  0  0  0
   -0.7144    1.0312    0.0000 O   0  0  0  0  0  0  0  0  0  0  0
   -3.5722    1.0312    0.0000 N   0  0  0  0  0  0  0  0  0  0  0
   -3.5722    1.8562    0.0000 C   0  0  0  0  0  0  0  0  0  0  0
   -4.2867    2.2687    0.0000 C   0  0  0  0  0  0  0  0  0  0  0
   -5.0012    1.8562    0.0000 N   0  0  0  0  0  0  0  0  0  0  0
   -5.0012    1.0312    0.0000 C   0  0  0  0  0  0  0  0  0  0  0
   -4.2867    0.6187    0.0000 C   0  0  0  0  0  0  0  0  0  0  0
   -5.7157    2.2687    0.0000 C   0  0  0  0  0  0  0  0  0  0  0
    0.7144   -3.0937    0.0000 N   0  0  0  0  0  0  0  0  0  0  0
    1.4289   -2.6812    0.0000 C   0  0  0  0  0  0  0  0  0  0  0
    2.1433   -3.0937    0.0000 C   0  0  0  0  0  0  0  0  0  0  0
    2.8578   -2.6812    0.0000 C   0  0  0  0  0  0  0  0  0  0  0
    2.8578   -1.8562    0.0000 C   0  0  0  0  0  0  0  0  0  0  0
    2.1433   -1.4437    0.0000 C   0  0  0  0  0  0  0  0  0  0  0
    1.4289   -1.8562    0.0000 C   0  0  0  0  0  0  0  0  0  0  0
    3.5722   -1.4437    0.0000 N   0  0  0  0  0  0  0  0  0  0  0
    4.2867   -1.8562    0.0000 C   0  0  0  0  0  0  0  0  0  0  0
    5.0012   -1.4437    0.0000 C   0  0  0  0  0  0  0  0  0  0  0
    5.0012   -0.6187    0.0000 N   0  0  0  0  0  0  0  0  0  0  0
    4.2867   -0.2063    0.0000 C   0  0  0  0  0  0  0  0  0  0  0
    3.5722   -0.6187    0.0000 C   0  0  0  0  0  0  0  0  0  0  0
    5.7157   -0.2063    0.0000 C   0  0  0  0  0  0  0  0  0  0  0
   -6.4301    1.8562    0.0000 C   0  0  0  0  0  0  0  0  0  0  0
   -5.7157    3.0937    0.0000 O   0  0  0  0  0  0  0  0  0  0  0
    0.0000    0.6187    0.0000 C   0  0  0  0  0  0  0  0  0  0  0
    6.4301   -0.6187    0.0000 C   0  0  0  0  0  0  0  0  0  0  0
    5.7157    0.6187    0.0000 O   0  0  0  0  0  0  0  0  0  0  0
  1  2  4  0  0  0  0
  2  3  4  0  0  0  0
  3  4  4  0  0  0  0
  4  5  4  0  0  0  0
  5  6  4  0  0  0  0
  6  1  4  0  0  0  0
  1  7  1  0  0  0  0
  6  8  1  0  0  0  0
  8  9  1  0  0  0  0
  9 10  4  0  0  0  0
 10 11  4  0  0  0  0
 11 12  4  0  0  0  0
 12 13  4  0  0  0  0
 13 14  4  0  0  0  0
 14  9  4  0  0  0  0
 10 15  1  0  0  0  0
 12 16  1  0  0  0  0
 16 17  1  0  0  0  0
 17 18  1  0  0  0  0
 18 19  1  0  0  0  0
 19 20  1  0  0  0  0
 20 21  1  0  0  0  0
 21 16  1  0  0  0  0
 19 22  1  0  0  0  0
  4 23  1  0  0  0  0
 23 24  1  0  0  0  0
 24 25  4  0  0  0  0
 25 26  4  0  0  0  0
 26 27  4  0  0  0  0
 27 28  4  0  0  0  0
 28 29  4  0  0  0  0
 29 24  4  0  0  0  0
 27 30  1  0  0  0  0
 30 31  1  0  0  0  0
 31 32  1  0  0  0  0
 32 33  1  0  0  0  0
 33 34  1  0  0  0  0
 34 35  1  0  0  0  0
 35 30  1  0  0  0  0
 33 36  1  0  0  0  0
 22 37  1  0  0  0  0
 22 38  2  0  0  0  0
 15 39  1  0  0  0  0
 36 40  1  0  0  0  0
 36 41  2  0  0  0  0
M  END
> <From>
www.bindingDB.org

> <BindingDB Reactant_set_id>
345684

> <Ligand InChI>
InChI=1S/C29H35ClN8O3/c1-20(39)35-10-14-37(15-11-35)23-6-4-22(5-7-23)32-29-31-19-25(30)28(34-29)33-26-9-8-24(18-27(26)41-3)38-16-12-36(13-17-38)21(2)40/h4-9,18-19H,10-17H2,1-3H3,(H2,31,32,33,34)

> <Ligand InChI Key>
BDOCHZSYLQTMCL-UHFFFAOYSA-N

> <BindingDB MonomerID>
193428

> <BindingDB Ligand Name>
US9199944, 10

> <Target Name Assigned by Curator or DataSource>
ALK tyrosine kinase receptor

> <Target Source Organism According to Curator or DataSource>
Homo sapiens

> <Ki (nM)>


> <IC50 (nM)>
 18

> <Kd (nM)>


> <EC50 (nM)>


> <kon (M-1-s-1)>


> <koff (s-1)>


> <pH>


> <Temp C>
25.00

> <Curation/DataSource>
US Patent

> <Article DOI>


> <PMID>


> <PubChem AID>


> <Patent Number>
US9199944

> <Authors>
Lee, K; Kim, HR; Park, CH; Lee, CO; Lee, JK; Jung, HJ; Cho, SY; Chae, CH; Choi, SU; Ha, JD

> <Institution>
KOREA RESEARCH INSTITUTE OF CHEMICAL TECHNOLOGY

> <Link to Ligand in BindingDB>
http://www.bindingdb.org/bind/chemsearch/marvin/MolStructure.jsp?monomerid=193428

> <Link to Ligand-Target Pair in BindingDB>
http://www.bindingdb.org/jsp/dbsearch/PrimarySearch_ki.jsp?energyterm=kJ/mole&tag=pol&polymerid=5809&target=ALK+tyrosine+kinase+receptor&column=ki&startPg=0&Increment=50&submit=Search

> <Link to Ligand-Target Pair in BindingDB>
http://www.bindingdb.org/jsp/dbsearch/PrimarySearch_ki.jsp?energyterm=kJ/mole&tag=r21&monomerid=193428&enzyme=ALK+tyrosine+kinase+receptor&column=ki&startPg=0&Increment=50&submit=Search

> <Ligand HET ID in PDB>


> <PDB ID(s) for Ligand-Target Complex>


> <PubChem CID>
72546715

> <PubChem SID>
317230748

> <ChEBI ID of Ligand>


> <ChEMBL ID of Ligand>


> <DrugBank ID of Ligand>


> <IUPHAR_GRAC ID of Ligand>


> <KEGG ID of Ligand>


> <ZINC ID of Ligand>


> <Number of Protein Chains in Target (>1 implies a multichain complex)>
1

> <BindingDB Target Chain Sequence>
MGAIGLLWLLPLLLSTAAVGSGMGTGQRAGSPAAGPPLQPREPLSYSRLQRKSLAVDFVVPSLFRVYARDLLLPPSSSELKAGRPEARGSLALDCAPLLRLLGPAPGVSWTAGSPAPAEARTLSRVLKGGSVRKLRRAKQLVLELGEEAILEGCVGPPGEAAVGLLQFNLSELFSWWIRQGEGRLRIRLMPEKKASEVGREGRLSAAIRASQPRLLFQIFGTGHSSLESPTNMPSPSPDYFTWNLTWIMKDSFPFLSHRSRYGLECSFDFPCELEYSPPLHDLRNQSWSWRRIPSEEASQMDLLDGPGAERSKEMPRGSFLLLNTSADSKHTILSPWMRSSSEHCTLAVSVHRHLQPSGRYIAQLLPHNEAAREILLMPTPGKHGWTVLQGRIGRPDNPFRVALEYISSGNRSLSAVDFFALKNCSEGTSPGSKMALQSSFTCWNGTVLQLGQACDFHQDCAQGEDESQMCRKLPVGFYCNFEDGFCGWTQGTLSPHTPQWQVRTLKDARFQDHQDHALLLSTTDVPASESATVTSATFPAPIKSSPCELRMSWLIRGVLRGNVSLVLVENKTGKEQGRMVWHVAAYEGLSLWQWMVLPLLDVSDRFWLQMVAWWGQGSRAIVAFDNISISLDCYLTISGEDKILQNTAPKSRNLFERNPNKELKPGENSPRQTPIFDPTVHWLFTTCGASGPHGPTQAQCNNAYQNSNLSVEVGSEGPLKGIQIWKVPATDTYSISGYGAAGGKGGKNTMMRSHGVSVLGIFNLEKDDMLYILVGQQGEDACPSTNQLIQKVCIGENNVIEEEIRVNRSVHEWAGGGGGGGGATYVFKMKDGVPVPLIIAAGGGGRAYGAKTDTFHPERLENNSSVLGLNGNSGAAGGGGGWNDNTSLLWAGKSLQEGATGGHSCPQAMKKWGWETRGGFGGGGGGCSSGGGGGGYIGGNAASNNDPEMDGEDGVSFISPLGILYTPALKVMEGHGEVNIKHYLNCSHCEVDECHMDPESHKVICFCDHGTVLAEDGVSCIVSPTPEPHLPLSLILSVVTSALVAALVLAFSGIMIVYRRKHQELQAMQMELQSPEYKLSKLRTSTIMTDYNPNYCFAGKTSSISDLKEVPRKNITLIRGLGHGAFGEVYEGQVSGMPNDPSPLQVAVKTLPEVCSEQDELDFLMEALIISKFNHQNIVRCIGVSLQSLPRFILLELMAGGDLKSFLRETRPRPSQPSSLAMLDLLHVARDIACGCQYLEENHFIHRDIAARNCLLTCPGPGRVAKIGDFGMARDIYRASYYRKGGCAMLPVKWMPPEAFMEGIFTSKTDTWSFGVLLWEIFSLGYMPYPSKSNQEVLEFVTSGGRMDPPKNCPGPVYRIMTQCWQHQPEDRPNFAIILERIEYCTQDPDVINTALPIEYGPLVEEEEKVPVRPKDPEGVPPLLVSQQAKREEERSPAAPPPLPTTSSGKAAKKPTAAEISVRVPRGPAVEGGHVNMAFSQSNPPSELHKVHGSRNKPTSLWNPTYGSWFTEKPTKKNNPIAKKEPHDRGNLGLEGSCTVPPNVATGRLPGASLLLEPSSLTANMKEVPLFRLRHFPCGNVNYGYQQQGLPLEAATAPGAGHYEDTILKSKNSMNQPGP

> <PDB ID(s) of Target Chain>
2XB7,2XBA,3AOX,5FTO,5FTQ,6E0R,6EBW,6EDL,6MX8

> <UniProt (SwissProt) Recommended Name of Target Chain>
ALK tyrosine kinase receptor

> <UniProt (SwissProt) Entry Name of Target Chain>
ALK_HUMAN

> <UniProt (SwissProt) Primary ID of Target Chain>
Q9UM73

> <UniProt (SwissProt) Secondary ID(s) of Target Chain>
Q4ZFX9,Q53QQ6,Q53RZ4,Q59FI3,Q9Y4K6

> <UniProt (SwissProt) Alternative ID(s) of Target Chain>


> <UniProt (TrEMBL) Submitted Name of Target Chain>


> <UniProt (TrEMBL) Entry Name of Target Chain>


> <UniProt (TrEMBL) Primary ID of Target Chain>


> <UniProt (TrEMBL) Secondary ID(s) of Target Chain>


> <UniProt (TrEMBL) Alternative ID(s) of Target Chain>


$$$$
00075001.cdx

Vconf v2.0 Academic SN VC001-00000579
 40 44  0  0  0  0  0  0  0  0999 V2000
   -2.1435   -0.8251    0.0000 C   0  0  0  0  0  0  0  0  0  0  0
   -2.1435   -1.6499    0.0000 C   0  0  0  0  0  0  0  0  0  0  0
   -1.4290   -2.0626    0.0000 N   0  0  0  0  0  0  0  0  0  0  0
   -0.7145   -1.6499    0.0000 C   0  0  0  0  0  0  0  0  0  0  0
   -0.7145   -0.8251    0.0000 N   0  0  0  0  0  0  0  0  0  0  0
   -1.4290   -0.4125    0.0000 C   0  0  0  0  0  0  0  0  0  0  0
   -2.8578   -0.4125    0.0000 Cl  0  0  0  0  0  0  0  0  0  0  0
   -1.4290    0.4125    0.0000 N   0  0  0  0  0  0  0  0  0  0  0
   -2.1435    0.8251    0.0000 C   0  0  0  0  0  0  0  0  0  0  0
   -2.1435    1.6499    0.0000 C   0  0  0  0  0  0  0  0  0  0  0
   -2.8578    2.0626    0.0000 C   0  0  0  0  0  0  0  0  0  0  0
   -3.5725    1.6499    0.0000 C   0  0  0  0  0  0  0  0  0  0  0
   -3.5725    0.8251    0.0000 C   0  0  0  0  0  0  0  0  0  0  0
   -2.8578    0.4125    0.0000 C   0  0  0  0  0  0  0  0  0  0  0
   -1.4290    2.0626    0.0000 O   0  0  0  0  0  0  0  0  0  0  0
   -4.2869    2.0626    0.0000 N   0  0  0  0  0  0  0  0  0  0  0
   -4.2869    2.8875    0.0000 C   0  0  0  0  0  0  0  0  0  0  0
   -5.0013    3.3000    0.0000 C   0  0  0  0  0  0  0  0  0  0  0
   -5.7158    2.8875    0.0000 N   0  0  0  0  0  0  0  0  0  0  0
   -5.7158    2.0626    0.0000 C   0  0  0  0  0  0  0  0  0  0  0
   -5.0013    1.6500    0.0000 C   0  0  0  0  0  0  0  0  0  0  0
    0.0000   -2.0626    0.0000 N   0  0  0  0  0  0  0  0  0  0  0
    0.7145   -1.6499    0.0000 C   0  0  0  0  0  0  0  0  0  0  0
    1.4290   -2.0626    0.0000 C   0  0  0  0  0  0  0  0  0  0  0
    2.1435   -1.6499    0.0000 C   0  0  0  0  0  0  0  0  0  0  0
    2.1435   -0.8251    0.0000 C   0  0  0  0  0  0  0  0  0  0  0
    1.4290   -0.4125    0.0000 C   0  0  0  0  0  0  0  0  0  0  0
    0.7145   -0.8251    0.0000 C   0  0  0  0  0  0  0  0  0  0  0
    2.8578   -0.4125    0.0000 N   0  0  0  0  0  0  0  0  0  0  0
    3.5725   -0.8251    0.0000 C   0  0  0  0  0  0  0  0  0  0  0
    4.2869   -0.4125    0.0000 C   0  0  0  0  0  0  0  0  0  0  0
    4.2869    0.4125    0.0000 N   0  0  0  0  0  0  0  0  0  0  0
    3.5725    0.8251    0.0000 C   0  0  0  0  0  0  0  0  0  0  0
    2.8578    0.4125    0.0000 C   0  0  0  0  0  0  0  0  0  0  0
    1.4290   -2.8875    0.0000 O   0  0  0  0  0  0  0  0  0  0  0
    5.0013    0.8251    0.0000 C   0  0  0  0  0  0  0  0  0  0  0
   -0.7145    1.6499    0.0000 C   0  0  0  0  0  0  0  0  0  0  0
    2.1435   -3.3000    0.0000 C   0  0  0  0  0  0  0  0  0  0  0
    5.7158    0.4125    0.0000 C   0  0  0  0  0  0  0  0  0  0  0
    5.0013    1.6499    0.0000 O   0  0  0  0  0  0  0  0  0  0  0
  1  2  4  0  0  0  0
  2  3  4  0  0  0  0
  3  4  4  0  0  0  0
  4  5  4  0  0  0  0
  5  6  4  0  0  0  0
  6  1  4  0  0  0  0
  1  7  1  0  0  0  0
  6  8  1  0  0  0  0
  8  9  1  0  0  0  0
  9 10  4  0  0  0  0
 10 11  4  0  0  0  0
 11 12  4  0  0  0  0
 12 13  4  0  0  0  0
 13 14  4  0  0  0  0
 14  9  4  0  0  0  0
 10 15  1  0  0  0  0
 12 16  1  0  0  0  0
 16 17  1  0  0  0  0
 17 18  1  0  0  0  0
 18 19  1  0  0  0  0
 19 20  1  0  0  0  0
 20 21  1  0  0  0  0
 21 16  1  0  0  0  0
  4 22  1  0  0  0  0
 22 23  1  0  0  0  0
 23 24  4  0  0  0  0
 24 25  4  0  0  0  0
 25 26  4  0  0  0  0
 26 27  4  0  0  0  0
 27 28  4  0  0  0  0
 28 23  4  0  0  0  0
 26 29  1  0  0  0  0
 29 30  1  0  0  0  0
 30 31  1  0  0  0  0
 31 32  1  0  0  0  0
 32 33  1  0  0  0  0
 33 34  1  0  0  0  0
 34 29  1  0  0  0  0
 24 35  1  0  0  0  0
 32 36  1  0  0  0  0
 15 37  1  0  0  0  0
 35 38  1  0  0  0  0
 36 39  1  0  0  0  0
 36 40  2  0  0  0  0
M  END
> <From>
www.bindingDB.org

> <BindingDB Reactant_set_id>
345686

> <Ligand InChI>
InChI=1S/C28H35ClN8O3/c1-19(38)35-12-14-37(15-13-35)21-5-7-24(26(17-21)40-3)33-28-31-18-22(29)27(34-28)32-23-6-4-20(16-25(23)39-2)36-10-8-30-9-11-36/h4-7,16-18,30H,8-15H2,1-3H3,(H2,31,32,33,34)

> <Ligand InChI Key>
GRDJEYCFHVKLNE-UHFFFAOYSA-N

> <BindingDB MonomerID>
193430

> <BindingDB Ligand Name>
US9199944, 12

> <Target Name Assigned by Curator or DataSource>
ALK tyrosine kinase receptor

> <Target Source Organism According to Curator or DataSource>
Homo sapiens

> <Ki (nM)>


> <IC50 (nM)>
 9

> <Kd (nM)>


> <EC50 (nM)>


> <kon (M-1-s-1)>


> <koff (s-1)>


> <pH>


> <Temp C>
25.00

> <Curation/DataSource>
US Patent

> <Article DOI>


> <PMID>


> <PubChem AID>


> <Patent Number>
US9199944

> <Authors>
Lee, K; Kim, HR; Park, CH; Lee, CO; Lee, JK; Jung, HJ; Cho, SY; Chae, CH; Choi, SU; Ha, JD

> <Institution>
KOREA RESEARCH INSTITUTE OF CHEMICAL TECHNOLOGY

> <Link to Ligand in BindingDB>
http://www.bindingdb.org/bind/chemsearch/marvin/MolStructure.jsp?monomerid=193430

> <Link to Ligand-Target Pair in BindingDB>
http://www.bindingdb.org/jsp/dbsearch/PrimarySearch_ki.jsp?energyterm=kJ/mole&tag=pol&polymerid=5809&target=ALK+tyrosine+kinase+receptor&column=ki&startPg=0&Increment=50&submit=Search

> <Link to Ligand-Target Pair in BindingDB>
http://www.bindingdb.org/jsp/dbsearch/PrimarySearch_ki.jsp?energyterm=kJ/mole&tag=r21&monomerid=193430&enzyme=ALK+tyrosine+kinase+receptor&column=ki&startPg=0&Increment=50&submit=Search

> <Ligand HET ID in PDB>


> <PDB ID(s) for Ligand-Target Complex>


> <PubChem CID>
118105664

> <PubChem SID>
317230750

> <ChEBI ID of Ligand>


> <ChEMBL ID of Ligand>


> <DrugBank ID of Ligand>


> <IUPHAR_GRAC ID of Ligand>


> <KEGG ID of Ligand>


> <ZINC ID of Ligand>


> <Number of Protein Chains in Target (>1 implies a multichain complex)>
1

> <BindingDB Target Chain Sequence>
MGAIGLLWLLPLLLSTAAVGSGMGTGQRAGSPAAGPPLQPREPLSYSRLQRKSLAVDFVVPSLFRVYARDLLLPPSSSELKAGRPEARGSLALDCAPLLRLLGPAPGVSWTAGSPAPAEARTLSRVLKGGSVRKLRRAKQLVLELGEEAILEGCVGPPGEAAVGLLQFNLSELFSWWIRQGEGRLRIRLMPEKKASEVGREGRLSAAIRASQPRLLFQIFGTGHSSLESPTNMPSPSPDYFTWNLTWIMKDSFPFLSHRSRYGLECSFDFPCELEYSPPLHDLRNQSWSWRRIPSEEASQMDLLDGPGAERSKEMPRGSFLLLNTSADSKHTILSPWMRSSSEHCTLAVSVHRHLQPSGRYIAQLLPHNEAAREILLMPTPGKHGWTVLQGRIGRPDNPFRVALEYISSGNRSLSAVDFFALKNCSEGTSPGSKMALQSSFTCWNGTVLQLGQACDFHQDCAQGEDESQMCRKLPVGFYCNFEDGFCGWTQGTLSPHTPQWQVRTLKDARFQDHQDHALLLSTTDVPASESATVTSATFPAPIKSSPCELRMSWLIRGVLRGNVSLVLVENKTGKEQGRMVWHVAAYEGLSLWQWMVLPLLDVSDRFWLQMVAWWGQGSRAIVAFDNISISLDCYLTISGEDKILQNTAPKSRNLFERNPNKELKPGENSPRQTPIFDPTVHWLFTTCGASGPHGPTQAQCNNAYQNSNLSVEVGSEGPLKGIQIWKVPATDTYSISGYGAAGGKGGKNTMMRSHGVSVLGIFNLEKDDMLYILVGQQGEDACPSTNQLIQKVCIGENNVIEEEIRVNRSVHEWAGGGGGGGGATYVFKMKDGVPVPLIIAAGGGGRAYGAKTDTFHPERLENNSSVLGLNGNSGAAGGGGGWNDNTSLLWAGKSLQEGATGGHSCPQAMKKWGWETRGGFGGGGGGCSSGGGGGGYIGGNAASNNDPEMDGEDGVSFISPLGILYTPALKVMEGHGEVNIKHYLNCSHCEVDECHMDPESHKVICFCDHGTVLAEDGVSCIVSPTPEPHLPLSLILSVVTSALVAALVLAFSGIMIVYRRKHQELQAMQMELQSPEYKLSKLRTSTIMTDYNPNYCFAGKTSSISDLKEVPRKNITLIRGLGHGAFGEVYEGQVSGMPNDPSPLQVAVKTLPEVCSEQDELDFLMEALIISKFNHQNIVRCIGVSLQSLPRFILLELMAGGDLKSFLRETRPRPSQPSSLAMLDLLHVARDIACGCQYLEENHFIHRDIAARNCLLTCPGPGRVAKIGDFGMARDIYRASYYRKGGCAMLPVKWMPPEAFMEGIFTSKTDTWSFGVLLWEIFSLGYMPYPSKSNQEVLEFVTSGGRMDPPKNCPGPVYRIMTQCWQHQPEDRPNFAIILERIEYCTQDPDVINTALPIEYGPLVEEEEKVPVRPKDPEGVPPLLVSQQAKREEERSPAAPPPLPTTSSGKAAKKPTAAEISVRVPRGPAVEGGHVNMAFSQSNPPSELHKVHGSRNKPTSLWNPTYGSWFTEKPTKKNNPIAKKEPHDRGNLGLEGSCTVPPNVATGRLPGASLLLEPSSLTANMKEVPLFRLRHFPCGNVNYGYQQQGLPLEAATAPGAGHYEDTILKSKNSMNQPGP

> <PDB ID(s) of Target Chain>
2XB7,2XBA,3AOX,5FTO,5FTQ,6E0R,6EBW,6EDL,6MX8

> <UniProt (SwissProt) Recommended Name of Target Chain>
ALK tyrosine kinase receptor

> <UniProt (SwissProt) Entry Name of Target Chain>
ALK_HUMAN

> <UniProt (SwissProt) Primary ID of Target Chain>
Q9UM73

> <UniProt (SwissProt) Secondary ID(s) of Target Chain>
Q4ZFX9,Q53QQ6,Q53RZ4,Q59FI3,Q9Y4K6

> <UniProt (SwissProt) Alternative ID(s) of Target Chain>


> <UniProt (TrEMBL) Submitted Name of Target Chain>


> <UniProt (TrEMBL) Entry Name of Target Chain>


> <UniProt (TrEMBL) Primary ID of Target Chain>


> <UniProt (TrEMBL) Secondary ID(s) of Target Chain>


> <UniProt (TrEMBL) Alternative ID(s) of Target Chain>


$$$$
00076001.cdx

Vconf v2.0 Academic SN VC001-00000579
 44 48  0  0  0  0  0  0  0  0999 V2000
   -1.3737   -1.2376    0.0000 C   0  0  0  0  0  0  0  0  0  0  0
   -1.3737   -2.0626    0.0000 C   0  0  0  0  0  0  0  0  0  0  0
   -0.6592   -2.4750    0.0000 N   0  0  0  0  0  0  0  0  0  0  0
    0.0553   -2.0626    0.0000 C   0  0  0  0  0  0  0  0  0  0  0
    0.0553   -1.2376    0.0000 N   0  0  0  0  0  0  0  0  0  0  0
   -0.6592   -0.8250    0.0000 C   0  0  0  0  0  0  0  0  0  0  0
   -2.0882   -0.8250    0.0000 Cl  0  0  0  0  0  0  0  0  0  0  0
   -0.6592    0.0000    0.0000 N   0  0  0  0  0  0  0  0  0  0  0
   -1.3737    0.4126    0.0000 C   0  0  0  0  0  0  0  0  0  0  0
   -1.3737    1.2376    0.0000 C   0  0  0  0  0  0  0  0  0  0  0
   -2.0882    1.6500    0.0000 C   0  0  0  0  0  0  0  0  0  0  0
   -2.8026    1.2376    0.0000 C   0  0  0  0  0  0  0  0  0  0  0
   -2.8026    0.4126    0.0000 C   0  0  0  0  0  0  0  0  0  0  0
   -2.0882    0.0000    0.0000 C   0  0  0  0  0  0  0  0  0  0  0
   -0.6592    1.6500    0.0000 O   0  0  0  0  0  0  0  0  0  0  0
   -3.5171    1.6500    0.0000 N   0  0  0  0  0  0  0  0  0  0  0
   -3.5171    2.4750    0.0000 C   0  0  0  0  0  0  0  0  0  0  0
   -4.2316    2.8876    0.0000 C   0  0  0  0  0  0  0  0  0  0  0
   -4.9462    2.4750    0.0000 N   0  0  0  0  0  0  0  0  0  0  0
   -4.9462    1.6500    0.0000 C   0  0  0  0  0  0  0  0  0  0  0
   -4.2316    1.2376    0.0000 C   0  0  0  0  0  0  0  0  0  0  0
   -5.6607    2.8876    0.0000 S   0  0  0  0  0  0  0  0  0  0  0
    0.7697   -2.4750    0.0000 N   0  0  0  0  0  0  0  0  0  0  0
    1.4842   -2.0626    0.0000 C   0  0  0  0  0  0  0  0  0  0  0
    2.1987   -2.4750    0.0000 C   0  0  0  0  0  0  0  0  0  0  0
    2.9132   -2.0626    0.0000 C   0  0  0  0  0  0  0  0  0  0  0
    2.9132   -1.2376    0.0000 C   0  0  0  0  0  0  0  0  0  0  0
    2.1987   -0.8250    0.0000 C   0  0  0  0  0  0  0  0  0  0  0
    1.4842   -1.2376    0.0000 C   0  0  0  0  0  0  0  0  0  0  0
    3.6276   -0.8250    0.0000 N   0  0  0  0  0  0  0  0  0  0  0
    4.3421   -1.2376    0.0000 C   0  0  0  0  0  0  0  0  0  0  0
    5.0567   -0.8250    0.0000 C   0  0  0  0  0  0  0  0  0  0  0
    5.0567    0.0000    0.0000 N   0  0  0  0  0  0  0  0  0  0  0
    4.3421    0.4126    0.0000 C   0  0  0  0  0  0  0  0  0  0  0
    3.6276    0.0000    0.0000 C   0  0  0  0  0  0  0  0  0  0  0
    2.1987   -3.3000    0.0000 O   0  0  0  0  0  0  0  0  0  0  0
    5.7712    0.4126    0.0000 C   0  0  0  0  0  0  0  0  0  0  0
   -6.4857    2.8876    0.0000 C   0  0  0  0  0  0  0  0  0  0  0
   -5.6607    3.7126    0.0000 O   0  0  0  0  0  0  0  0  0  0  0
    0.0553    1.2376    0.0000 C   0  0  0  0  0  0  0  0  0  0  0
    2.9132   -3.7126    0.0000 C   0  0  0  0  0  0  0  0  0  0  0
    6.4857    0.0000    0.0000 C   0  0  0  0  0  0  0  0  0  0  0
    5.7712    1.2376    0.0000 O   0  0  0  0  0  0  0  0  0  0  0
   -6.0731    2.1731    0.0000 O   0  0  0  0  0  0  0  0  0  0  0
  1  2  4  0  0  0  0
  2  3  4  0  0  0  0
  3  4  4  0  0  0  0
  4  5  4  0  0  0  0
  5  6  4  0  0  0  0
  6  1  4  0  0  0  0
  1  7  1  0  0  0  0
  6  8  1  0  0  0  0
  8  9  1  0  0  0  0
  9 10  4  0  0  0  0
 10 11  4  0  0  0  0
 11 12  4  0  0  0  0
 12 13  4  0  0  0  0
 13 14  4  0  0  0  0
 14  9  4  0  0  0  0
 10 15  1  0  0  0  0
 12 16  1  0  0  0  0
 16 17  1  0  0  0  0
 17 18  1  0  0  0  0
 18 19  1  0  0  0  0
 19 20  1  0  0  0  0
 20 21  1  0  0  0  0
 21 16  1  0  0  0  0
 19 22  1  0  0  0  0
  4 23  1  0  0  0  0
 23 24  1  0  0  0  0
 24 25  4  0  0  0  0
 25 26  4  0  0  0  0
 26 27  4  0  0  0  0
 27 28  4  0  0  0  0
 28 29  4  0  0  0  0
 29 24  4  0  0  0  0
 27 30  1  0  0  0  0
 30 31  1  0  0  0  0
 31 32  1  0  0  0  0
 32 33  1  0  0  0  0
 33 34  1  0  0  0  0
 34 35  1  0  0  0  0
 35 30  1  0  0  0  0
 25 36  1  0  0  0  0
 33 37  1  0  0  0  0
 22 38  1  0  0  0  0
 22 39  2  0  0  0  0
 15 40  1  0  0  0  0
 36 41  1  0  0  0  0
 37 42  1  0  0  0  0
 37 43  2  0  0  0  0
 22 44  2  0  0  0  0
M  END
> <From>
www.bindingDB.org

> <BindingDB Reactant_set_id>
345687

> <Ligand InChI>
InChI=1S/C29H37ClN8O5S/c1-20(39)35-9-11-36(12-10-35)21-6-8-25(27(18-21)43-3)33-29-31-19-23(30)28(34-29)32-24-7-5-22(17-26(24)42-2)37-13-15-38(16-14-37)44(4,40)41/h5-8,17-19H,9-16H2,1-4H3,(H2,31,32,33,34)

> <Ligand InChI Key>
KASUYLRRAXTGDA-UHFFFAOYSA-N

> <BindingDB MonomerID>
193431

> <BindingDB Ligand Name>
US9199944, 13

> <Target Name Assigned by Curator or DataSource>
ALK tyrosine kinase receptor

> <Target Source Organism According to Curator or DataSource>
Homo sapiens

> <Ki (nM)>


> <IC50 (nM)>
 25

> <Kd (nM)>


> <EC50 (nM)>


> <kon (M-1-s-1)>


> <koff (s-1)>


> <pH>


> <Temp C>
25.00

> <Curation/DataSource>
US Patent

> <Article DOI>


> <PMID>


> <PubChem AID>


> <Patent Number>
US9199944

> <Authors>
Lee, K; Kim, HR; Park, CH; Lee, CO; Lee, JK; Jung, HJ; Cho, SY; Chae, CH; Choi, SU; Ha, JD

> <Institution>
KOREA RESEARCH INSTITUTE OF CHEMICAL TECHNOLOGY

> <Link to Ligand in BindingDB>
http://www.bindingdb.org/bind/chemsearch/marvin/MolStructure.jsp?monomerid=193431

> <Link to Ligand-Target Pair in BindingDB>
http://www.bindingdb.org/jsp/dbsearch/PrimarySearch_ki.jsp?energyterm=kJ/mole&tag=pol&polymerid=5809&target=ALK+tyrosine+kinase+receptor&column=ki&startPg=0&Increment=50&submit=Search

> <Link to Ligand-Target Pair in BindingDB>
http://www.bindingdb.org/jsp/dbsearch/PrimarySearch_ki.jsp?energyterm=kJ/mole&tag=r21&monomerid=193431&enzyme=ALK+tyrosine+kinase+receptor&column=ki&startPg=0&Increment=50&submit=Search

> <Ligand HET ID in PDB>


> <PDB ID(s) for Ligand-Target Complex>


> <PubChem CID>
118105761

> <PubChem SID>
317230751

> <ChEBI ID of Ligand>


> <ChEMBL ID of Ligand>


> <DrugBank ID of Ligand>


> <IUPHAR_GRAC ID of Ligand>


> <KEGG ID of Ligand>


> <ZINC ID of Ligand>


> <Number of Protein Chains in Target (>1 implies a multichain complex)>
1

> <BindingDB Target Chain Sequence>
MGAIGLLWLLPLLLSTAAVGSGMGTGQRAGSPAAGPPLQPREPLSYSRLQRKSLAVDFVVPSLFRVYARDLLLPPSSSELKAGRPEARGSLALDCAPLLRLLGPAPGVSWTAGSPAPAEARTLSRVLKGGSVRKLRRAKQLVLELGEEAILEGCVGPPGEAAVGLLQFNLSELFSWWIRQGEGRLRIRLMPEKKASEVGREGRLSAAIRASQPRLLFQIFGTGHSSLESPTNMPSPSPDYFTWNLTWIMKDSFPFLSHRSRYGLECSFDFPCELEYSPPLHDLRNQSWSWRRIPSEEASQMDLLDGPGAERSKEMPRGSFLLLNTSADSKHTILSPWMRSSSEHCTLAVSVHRHLQPSGRYIAQLLPHNEAAREILLMPTPGKHGWTVLQGRIGRPDNPFRVALEYISSGNRSLSAVDFFALKNCSEGTSPGSKMALQSSFTCWNGTVLQLGQACDFHQDCAQGEDESQMCRKLPVGFYCNFEDGFCGWTQGTLSPHTPQWQVRTLKDARFQDHQDHALLLSTTDVPASESATVTSATFPAPIKSSPCELRMSWLIRGVLRGNVSLVLVENKTGKEQGRMVWHVAAYEGLSLWQWMVLPLLDVSDRFWLQMVAWWGQGSRAIVAFDNISISLDCYLTISGEDKILQNTAPKSRNLFERNPNKELKPGENSPRQTPIFDPTVHWLFTTCGASGPHGPTQAQCNNAYQNSNLSVEVGSEGPLKGIQIWKVPATDTYSISGYGAAGGKGGKNTMMRSHGVSVLGIFNLEKDDMLYILVGQQGEDACPSTNQLIQKVCIGENNVIEEEIRVNRSVHEWAGGGGGGGGATYVFKMKDGVPVPLIIAAGGGGRAYGAKTDTFHPERLENNSSVLGLNGNSGAAGGGGGWNDNTSLLWAGKSLQEGATGGHSCPQAMKKWGWETRGGFGGGGGGCSSGGGGGGYIGGNAASNNDPEMDGEDGVSFISPLGILYTPALKVMEGHGEVNIKHYLNCSHCEVDECHMDPESHKVICFCDHGTVLAEDGVSCIVSPTPEPHLPLSLILSVVTSALVAALVLAFSGIMIVYRRKHQELQAMQMELQSPEYKLSKLRTSTIMTDYNPNYCFAGKTSSISDLKEVPRKNITLIRGLGHGAFGEVYEGQVSGMPNDPSPLQVAVKTLPEVCSEQDELDFLMEALIISKFNHQNIVRCIGVSLQSLPRFILLELMAGGDLKSFLRETRPRPSQPSSLAMLDLLHVARDIACGCQYLEENHFIHRDIAARNCLLTCPGPGRVAKIGDFGMARDIYRASYYRKGGCAMLPVKWMPPEAFMEGIFTSKTDTWSFGVLLWEIFSLGYMPYPSKSNQEVLEFVTSGGRMDPPKNCPGPVYRIMTQCWQHQPEDRPNFAIILERIEYCTQDPDVINTALPIEYGPLVEEEEKVPVRPKDPEGVPPLLVSQQAKREEERSPAAPPPLPTTSSGKAAKKPTAAEISVRVPRGPAVEGGHVNMAFSQSNPPSELHKVHGSRNKPTSLWNPTYGSWFTEKPTKKNNPIAKKEPHDRGNLGLEGSCTVPPNVATGRLPGASLLLEPSSLTANMKEVPLFRLRHFPCGNVNYGYQQQGLPLEAATAPGAGHYEDTILKSKNSMNQPGP

> <PDB ID(s) of Target Chain>
2XB7,2XBA,3AOX,5FTO,5FTQ,6E0R,6EBW,6EDL,6MX8

> <UniProt (SwissProt) Recommended Name of Target Chain>
ALK tyrosine kinase receptor

> <UniProt (SwissProt) Entry Name of Target Chain>
ALK_HUMAN

> <UniProt (SwissProt) Primary ID of Target Chain>
Q9UM73

> <UniProt (SwissProt) Secondary ID(s) of Target Chain>
Q4ZFX9,Q53QQ6,Q53RZ4,Q59FI3,Q9Y4K6

> <UniProt (SwissProt) Alternative ID(s) of Target Chain>


> <UniProt (TrEMBL) Submitted Name of Target Chain>


> <UniProt (TrEMBL) Entry Name of Target Chain>


> <UniProt (TrEMBL) Primary ID of Target Chain>


> <UniProt (TrEMBL) Secondary ID(s) of Target Chain>


> <UniProt (TrEMBL) Alternative ID(s) of Target Chain>


$$$$
00077001.cdx

Vconf v2.0 Academic SN VC001-00000579
 44 48  0  0  0  0  0  0  0  0999 V2000
   -1.0717   -1.2375    0.0000 C   0  0  0  0  0  0  0  0  0  0  0
   -1.0717   -2.0625    0.0000 C   0  0  0  0  0  0  0  0  0  0  0
   -0.3572   -2.4751    0.0000 N   0  0  0  0  0  0  0  0  0  0  0
    0.3572   -2.0625    0.0000 C   0  0  0  0  0  0  0  0  0  0  0
    0.3572   -1.2375    0.0000 N   0  0  0  0  0  0  0  0  0  0  0
   -0.3572   -0.8249    0.0000 C   0  0  0  0  0  0  0  0  0  0  0
   -1.7861   -0.8249    0.0000 Cl  0  0  0  0  0  0  0  0  0  0  0
   -0.3572    0.0000    0.0000 N   0  0  0  0  0  0  0  0  0  0  0
   -1.0717    0.4125    0.0000 C   0  0  0  0  0  0  0  0  0  0  0
   -1.0717    1.2375    0.0000 C   0  0  0  0  0  0  0  0  0  0  0
   -1.7861    1.6500    0.0000 C   0  0  0  0  0  0  0  0  0  0  0
   -2.5007    1.2375    0.0000 C   0  0  0  0  0  0  0  0  0  0  0
   -2.5007    0.4125    0.0000 C   0  0  0  0  0  0  0  0  0  0  0
   -1.7861    0.0000    0.0000 C   0  0  0  0  0  0  0  0  0  0  0
   -0.3572    1.6500    0.0000 O   0  0  0  0  0  0  0  0  0  0  0
   -3.2151    1.6500    0.0000 N   0  0  0  0  0  0  0  0  0  0  0
   -3.2151    2.4751    0.0000 C   0  0  0  0  0  0  0  0  0  0  0
   -3.9296    2.8875    0.0000 C   0  0  0  0  0  0  0  0  0  0  0
   -4.6440    2.4751    0.0000 N   0  0  0  0  0  0  0  0  0  0  0
   -4.6440    1.6500    0.0000 C   0  0  0  0  0  0  0  0  0  0  0
   -3.9296    1.2375    0.0000 C   0  0  0  0  0  0  0  0  0  0  0
   -5.3585    2.8875    0.0000 C   0  0  0  0  0  0  0  0  0  0  0
    1.0717   -2.4751    0.0000 N   0  0  0  0  0  0  0  0  0  0  0
    1.7861   -2.0625    0.0000 C   0  0  0  0  0  0  0  0  0  0  0
    2.5007   -2.4751    0.0000 C   0  0  0  0  0  0  0  0  0  0  0
    3.2151   -2.0625    0.0000 C   0  0  0  0  0  0  0  0  0  0  0
    3.2151   -1.2375    0.0000 C   0  0  0  0  0  0  0  0  0  0  0
    2.5007   -0.8249    0.0000 C   0  0  0  0  0  0  0  0  0  0  0
    1.7861   -1.2375    0.0000 C   0  0  0  0  0  0  0  0  0  0  0
    3.9296   -0.8249    0.0000 N   0  0  0  0  0  0  0  0  0  0  0
    4.6440   -1.2375    0.0000 C   0  0  0  0  0  0  0  0  0  0  0
    5.3585   -0.8249    0.0000 C   0  0  0  0  0  0  0  0  0  0  0
    5.3585    0.0000    0.0000 N   0  0  0  0  0  0  0  0  0  0  0
    4.6440    0.4125    0.0000 C   0  0  0  0  0  0  0  0  0  0  0
    3.9296    0.0000    0.0000 C   0  0  0  0  0  0  0  0  0  0  0
    2.5007   -3.3000    0.0000 O   0  0  0  0  0  0  0  0  0  0  0
    6.0730    0.4125    0.0000 C   0  0  0  0  0  0  0  0  0  0  0
   -6.0730    2.4751    0.0000 C   0  0  0  0  0  0  0  0  0  0  0
   -5.3585    3.7125    0.0000 O   0  0  0  0  0  0  0  0  0  0  0
    0.3572    1.2375    0.0000 C   0  0  0  0  0  0  0  0  0  0  0
    3.2151   -3.7125    0.0000 C   0  0  0  0  0  0  0  0  0  0  0
    6.7874    0.0000    0.0000 C   0  0  0  0  0  0  0  0  0  0  0
    6.0730    1.2375    0.0000 O   0  0  0  0  0  0  0  0  0  0  0
   -6.7874    2.8875    0.0000 O   0  0  0  0  0  0  0  0  0  0  0
  1  2  4  0  0  0  0
  2  3  4  0  0  0  0
  3  4  4  0  0  0  0
  4  5  4  0  0  0  0
  5  6  4  0  0  0  0
  6  1  4  0  0  0  0
  1  7  1  0  0  0  0
  6  8  1  0  0  0  0
  8  9  1  0  0  0  0
  9 10  4  0  0  0  0
 10 11  4  0  0  0  0
 11 12  4  0  0  0  0
 12 13  4  0  0  0  0
 13 14  4  0  0  0  0
 14  9  4  0  0  0  0
 10 15  1  0  0  0  0
 12 16  1  0  0  0  0
 16 17  1  0  0  0  0
 17 18  1  0  0  0  0
 18 19  1  0  0  0  0
 19 20  1  0  0  0  0
 20 21  1  0  0  0  0
 21 16  1  0  0  0  0
 19 22  1  0  0  0  0
  4 23  1  0  0  0  0
 23 24  1  0  0  0  0
 24 25  4  0  0  0  0
 25 26  4  0  0  0  0
 26 27  4  0  0  0  0
 27 28  4  0  0  0  0
 28 29  4  0  0  0  0
 29 24  4  0  0  0  0
 27 30  1  0  0  0  0
 30 31  1  0  0  0  0
 31 32  1  0  0  0  0
 32 33  1  0  0  0  0
 33 34  1  0  0  0  0
 34 35  1  0  0  0  0
 35 30  1  0  0  0  0
 25 36  1  0  0  0  0
 33 37  1  0  0  0  0
 22 38  1  0  0  0  0
 22 39  2  0  0  0  0
 15 40  1  0  0  0  0
 36 41  1  0  0  0  0
 37 42  1  0  0  0  0
 37 43  2  0  0  0  0
 38 44  1  0  0  0  0
M  END
> <From>
www.bindingDB.org

> <BindingDB Reactant_set_id>
345688

> <Ligand InChI>
InChI=1S/C30H37ClN8O5/c1-20(41)36-8-10-37(11-9-36)22-5-7-25(27(17-22)44-3)34-30-32-18-23(31)29(35-30)33-24-6-4-21(16-26(24)43-2)38-12-14-39(15-13-38)28(42)19-40/h4-7,16-18,40H,8-15,19H2,1-3H3,(H2,32,33,34,35)

> <Ligand InChI Key>
JZMRVGGBILYPDP-UHFFFAOYSA-N

> <BindingDB MonomerID>
193432

> <BindingDB Ligand Name>
US9199944, 14

> <Target Name Assigned by Curator or DataSource>
ALK tyrosine kinase receptor

> <Target Source Organism According to Curator or DataSource>
Homo sapiens

> <Ki (nM)>


> <IC50 (nM)>
 16

> <Kd (nM)>


> <EC50 (nM)>


> <kon (M-1-s-1)>


> <koff (s-1)>


> <pH>


> <Temp C>
25.00

> <Curation/DataSource>
US Patent

> <Article DOI>


> <PMID>


> <PubChem AID>


> <Patent Number>
US9199944

> <Authors>
Lee, K; Kim, HR; Park, CH; Lee, CO; Lee, JK; Jung, HJ; Cho, SY; Chae, CH; Choi, SU; Ha, JD

> <Institution>
KOREA RESEARCH INSTITUTE OF CHEMICAL TECHNOLOGY

> <Link to Ligand in BindingDB>
http://www.bindingdb.org/bind/chemsearch/marvin/MolStructure.jsp?monomerid=193432

> <Link to Ligand-Target Pair in BindingDB>
http://www.bindingdb.org/jsp/dbsearch/PrimarySearch_ki.jsp?energyterm=kJ/mole&tag=pol&polymerid=5809&target=ALK+tyrosine+kinase+receptor&column=ki&startPg=0&Increment=50&submit=Search

> <Link to Ligand-Target Pair in BindingDB>
http://www.bindingdb.org/jsp/dbsearch/PrimarySearch_ki.jsp?energyterm=kJ/mole&tag=r21&monomerid=193432&enzyme=ALK+tyrosine+kinase+receptor&column=ki&startPg=0&Increment=50&submit=Search

> <Ligand HET ID in PDB>


> <PDB ID(s) for Ligand-Target Complex>


> <PubChem CID>
118105643

> <PubChem SID>
317230752

> <ChEBI ID of Ligand>


> <ChEMBL ID of Ligand>


> <DrugBank ID of Ligand>


> <IUPHAR_GRAC ID of Ligand>


> <KEGG ID of Ligand>


> <ZINC ID of Ligand>


> <Number of Protein Chains in Target (>1 implies a multichain complex)>
1

> <BindingDB Target Chain Sequence>
MGAIGLLWLLPLLLSTAAVGSGMGTGQRAGSPAAGPPLQPREPLSYSRLQRKSLAVDFVVPSLFRVYARDLLLPPSSSELKAGRPEARGSLALDCAPLLRLLGPAPGVSWTAGSPAPAEARTLSRVLKGGSVRKLRRAKQLVLELGEEAILEGCVGPPGEAAVGLLQFNLSELFSWWIRQGEGRLRIRLMPEKKASEVGREGRLSAAIRASQPRLLFQIFGTGHSSLESPTNMPSPSPDYFTWNLTWIMKDSFPFLSHRSRYGLECSFDFPCELEYSPPLHDLRNQSWSWRRIPSEEASQMDLLDGPGAERSKEMPRGSFLLLNTSADSKHTILSPWMRSSSEHCTLAVSVHRHLQPSGRYIAQLLPHNEAAREILLMPTPGKHGWTVLQGRIGRPDNPFRVALEYISSGNRSLSAVDFFALKNCSEGTSPGSKMALQSSFTCWNGTVLQLGQACDFHQDCAQGEDESQMCRKLPVGFYCNFEDGFCGWTQGTLSPHTPQWQVRTLKDARFQDHQDHALLLSTTDVPASESATVTSATFPAPIKSSPCELRMSWLIRGVLRGNVSLVLVENKTGKEQGRMVWHVAAYEGLSLWQWMVLPLLDVSDRFWLQMVAWWGQGSRAIVAFDNISISLDCYLTISGEDKILQNTAPKSRNLFERNPNKELKPGENSPRQTPIFDPTVHWLFTTCGASGPHGPTQAQCNNAYQNSNLSVEVGSEGPLKGIQIWKVPATDTYSISGYGAAGGKGGKNTMMRSHGVSVLGIFNLEKDDMLYILVGQQGEDACPSTNQLIQKVCIGENNVIEEEIRVNRSVHEWAGGGGGGGGATYVFKMKDGVPVPLIIAAGGGGRAYGAKTDTFHPERLENNSSVLGLNGNSGAAGGGGGWNDNTSLLWAGKSLQEGATGGHSCPQAMKKWGWETRGGFGGGGGGCSSGGGGGGYIGGNAASNNDPEMDGEDGVSFISPLGILYTPALKVMEGHGEVNIKHYLNCSHCEVDECHMDPESHKVICFCDHGTVLAEDGVSCIVSPTPEPHLPLSLILSVVTSALVAALVLAFSGIMIVYRRKHQELQAMQMELQSPEYKLSKLRTSTIMTDYNPNYCFAGKTSSISDLKEVPRKNITLIRGLGHGAFGEVYEGQVSGMPNDPSPLQVAVKTLPEVCSEQDELDFLMEALIISKFNHQNIVRCIGVSLQSLPRFILLELMAGGDLKSFLRETRPRPSQPSSLAMLDLLHVARDIACGCQYLEENHFIHRDIAARNCLLTCPGPGRVAKIGDFGMARDIYRASYYRKGGCAMLPVKWMPPEAFMEGIFTSKTDTWSFGVLLWEIFSLGYMPYPSKSNQEVLEFVTSGGRMDPPKNCPGPVYRIMTQCWQHQPEDRPNFAIILERIEYCTQDPDVINTALPIEYGPLVEEEEKVPVRPKDPEGVPPLLVSQQAKREEERSPAAPPPLPTTSSGKAAKKPTAAEISVRVPRGPAVEGGHVNMAFSQSNPPSELHKVHGSRNKPTSLWNPTYGSWFTEKPTKKNNPIAKKEPHDRGNLGLEGSCTVPPNVATGRLPGASLLLEPSSLTANMKEVPLFRLRHFPCGNVNYGYQQQGLPLEAATAPGAGHYEDTILKSKNSMNQPGP

> <PDB ID(s) of Target Chain>
2XB7,2XBA,3AOX,5FTO,5FTQ,6E0R,6EBW,6EDL,6MX8

> <UniProt (SwissProt) Recommended Name of Target Chain>
ALK tyrosine kinase receptor

> <UniProt (SwissProt) Entry Name of Target Chain>
ALK_HUMAN

> <UniProt (SwissProt) Primary ID of Target Chain>
Q9UM73

> <UniProt (SwissProt) Secondary ID(s) of Target Chain>
Q4ZFX9,Q53QQ6,Q53RZ4,Q59FI3,Q9Y4K6

> <UniProt (SwissProt) Alternative ID(s) of Target Chain>


> <UniProt (TrEMBL) Submitted Name of Target Chain>


> <UniProt (TrEMBL) Entry Name of Target Chain>


> <UniProt (TrEMBL) Primary ID of Target Chain>


> <UniProt (TrEMBL) Secondary ID(s) of Target Chain>


> <UniProt (TrEMBL) Alternative ID(s) of Target Chain>


$$$$
00078001.cdx

Vconf v2.0 Academic SN VC001-00000579
 47 51  0  0  0  0  0  0  0  0999 V2000
   -4.5375    1.6800    0.0000 N   0  0  0  0  0  0  0  0  0  0  0
   -4.5117    0.8403    0.0000 C   0  0  0  0  0  0  0  0  0  0  0
   -3.7973    0.4277    0.0000 C   0  0  0  0  0  0  0  0  0  0  0
   -3.0828    0.8403    0.0000 N   0  0  0  0  0  0  0  0  0  0  0
   -3.0828    1.6653    0.0000 C   0  0  0  0  0  0  0  0  0  0  0
   -3.7973    2.0777    0.0000 C   0  0  0  0  0  0  0  0  0  0  0
   -2.3683    0.4277    0.0000 C   0  0  0  0  0  0  0  0  0  0  0
   -2.3683   -0.3973    0.0000 C   0  0  0  0  0  0  0  0  0  0  0
   -1.6539   -0.8097    0.0000 C   0  0  0  0  0  0  0  0  0  0  0
   -0.9394   -0.3973    0.0000 C   0  0  0  0  0  0  0  0  0  0  0
   -0.9394    0.4277    0.0000 C   0  0  0  0  0  0  0  0  0  0  0
   -1.6539    0.8403    0.0000 C   0  0  0  0  0  0  0  0  0  0  0
   -0.2249   -0.8097    0.0000 N   0  0  0  0  0  0  0  0  0  0  0
   -0.2249   -1.6347    0.0000 C   0  0  0  0  0  0  0  0  0  0  0
   -0.2249    0.8403    0.0000 O   0  0  0  0  0  0  0  0  0  0  0
    0.4896    0.4277    0.0000 C   0  0  0  0  0  0  0  0  0  0  0
   -0.9394   -2.0472    0.0000 C   0  0  0  0  0  0  0  0  0  0  0
   -0.9394   -2.8722    0.0000 C   0  0  0  0  0  0  0  0  0  0  0
   -0.2249   -3.2847    0.0000 N   0  0  0  0  0  0  0  0  0  0  0
    0.4896   -2.8722    0.0000 C   0  0  0  0  0  0  0  0  0  0  0
    0.4896   -2.0472    0.0000 N   0  0  0  0  0  0  0  0  0  0  0
   -1.6539   -1.6347    0.0000 Cl  0  0  0  0  0  0  0  0  0  0  0
    1.2040   -3.2847    0.0000 N   0  0  0  0  0  0  0  0  0  0  0
    1.9184   -2.8722    0.0000 C   0  0  0  0  0  0  0  0  0  0  0
    2.6330   -3.2847    0.0000 C   0  0  0  0  0  0  0  0  0  0  0
    3.3474   -2.8722    0.0000 C   0  0  0  0  0  0  0  0  0  0  0
    3.3474   -2.0472    0.0000 C   0  0  0  0  0  0  0  0  0  0  0
    2.6330   -1.6347    0.0000 C   0  0  0  0  0  0  0  0  0  0  0
    1.9184   -2.0472    0.0000 C   0  0  0  0  0  0  0  0  0  0  0
    2.6330   -4.1097    0.0000 O   0  0  0  0  0  0  0  0  0  0  0
    3.3474   -4.5222    0.0000 C   0  0  0  0  0  0  0  0  0  0  0
    4.0618   -1.6347    0.0000 N   0  0  0  0  0  0  0  0  0  0  0
    4.7764   -2.0472    0.0000 C   0  0  0  0  0  0  0  0  0  0  0
    5.4908   -1.6347    0.0000 C   0  0  0  0  0  0  0  0  0  0  0
    5.4908   -0.8097    0.0000 N   0  0  0  0  0  0  0  0  0  0  0
    4.7764   -0.3973    0.0000 C   0  0  0  0  0  0  0  0  0  0  0
    4.0618   -0.8097    0.0000 C   0  0  0  0  0  0  0  0  0  0  0
    6.2052   -0.3973    0.0000 C   0  0  0  0  0  0  0  0  0  0  0
    6.9198   -0.8097    0.0000 C   0  0  0  0  0  0  0  0  0  0  0
    6.2052    0.4277    0.0000 O   0  0  0  0  0  0  0  0  0  0  0
   -5.2521    2.9174    0.0000 O   0  0  0  0  0  0  0  0  0  0  0
   -5.9666    3.3299    0.0000 C   0  0  0  0  0  0  0  0  0  0  0
   -6.6811    3.7423    0.0000 C   0  0  0  0  0  0  0  0  0  0  0
   -5.5542    4.0444    0.0000 C   0  0  0  0  0  0  0  0  0  0  0
   -6.3790    2.6153    0.0000 C   0  0  0  0  0  0  0  0  0  0  0
   -5.2520    2.0924    0.0000 C   0  0  0  0  0  0  0  0  0  0  0
   -5.9665    1.6799    0.0000 O   0  0  0  0  0  0  0  0  0  0  0
  1  2  1  0  0  0  0
  2  3  1  0  0  0  0
  3  4  1  0  0  0  0
  4  5  1  0  0  0  0
  5  6  1  0  0  0  0
  6  1  1  0  0  0  0
  4  7  1  0  0  0  0
  7  8  4  0  0  0  0
  8  9  4  0  0  0  0
  9 10  4  0  0  0  0
 10 11  4  0  0  0  0
 11 12  4  0  0  0  0
 12  7  4  0  0  0  0
 10 13  1  0  0  0  0
 13 14  1  0  0  0  0
 11 15  1  0  0  0  0
 15 16  1  0  0  0  0
 14 17  4  0  0  0  0
 17 18  4  0  0  0  0
 18 19  4  0  0  0  0
 19 20  4  0  0  0  0
 20 21  4  0  0  0  0
 21 14  4  0  0  0  0
 17 22  1  0  0  0  0
 20 23  1  0  0  0  0
 23 24  1  0  0  0  0
 24 25  4  0  0  0  0
 25 26  4  0  0  0  0
 26 27  4  0  0  0  0
 27 28  4  0  0  0  0
 28 29  4  0  0  0  0
 29 24  4  0  0  0  0
 25 30  1  0  0  0  0
 30 31  1  0  0  0  0
 27 32  1  0  0  0  0
 32 33  1  0  0  0  0
 33 34  1  0  0  0  0
 34 35  1  0  0  0  0
 35 36  1  0  0  0  0
 36 37  1  0  0  0  0
 37 32  1  0  0  0  0
 35 38  1  0  0  0  0
 38 39  1  0  0  0  0
 38 40  2  0  0  0  0
  1 46  1  0  0  0  0
 41 42  1  0  0  0  0
 42 43  1  0  0  0  0
 42 44  1  0  0  0  0
 42 45  1  0  0  0  0
 46 47  2  0  0  0  0
 41 46  1  0  0  0  0
M  END
> <From>
www.bindingDB.org

> <BindingDB Reactant_set_id>
345689

> <Ligand InChI>
InChI=1S/C33H43ClN8O5/c1-22(43)39-11-13-40(14-12-39)24-8-10-27(29(20-24)46-6)37-31-35-21-25(34)30(38-31)36-26-9-7-23(19-28(26)45-5)41-15-17-42(18-16-41)32(44)47-33(2,3)4/h7-10,19-21H,11-18H2,1-6H3,(H2,35,36,37,38)

> <Ligand InChI Key>
IVFGILXUXGYNIY-UHFFFAOYSA-N

> <BindingDB MonomerID>
193433

> <BindingDB Ligand Name>
US9199944, 15

> <Target Name Assigned by Curator or DataSource>
ALK tyrosine kinase receptor

> <Target Source Organism According to Curator or DataSource>
Homo sapiens

> <Ki (nM)>


> <IC50 (nM)>
 85

> <Kd (nM)>


> <EC50 (nM)>


> <kon (M-1-s-1)>


> <koff (s-1)>


> <pH>


> <Temp C>
25.00

> <Curation/DataSource>
US Patent

> <Article DOI>


> <PMID>


> <PubChem AID>


> <Patent Number>
US9199944

> <Authors>
Lee, K; Kim, HR; Park, CH; Lee, CO; Lee, JK; Jung, HJ; Cho, SY; Chae, CH; Choi, SU; Ha, JD

> <Institution>
KOREA RESEARCH INSTITUTE OF CHEMICAL TECHNOLOGY

> <Link to Ligand in BindingDB>
http://www.bindingdb.org/bind/chemsearch/marvin/MolStructure.jsp?monomerid=193433

> <Link to Ligand-Target Pair in BindingDB>
http://www.bindingdb.org/jsp/dbsearch/PrimarySearch_ki.jsp?energyterm=kJ/mole&tag=pol&polymerid=5809&target=ALK+tyrosine+kinase+receptor&column=ki&startPg=0&Increment=50&submit=Search

> <Link to Ligand-Target Pair in BindingDB>
http://www.bindingdb.org/jsp/dbsearch/PrimarySearch_ki.jsp?energyterm=kJ/mole&tag=r21&monomerid=193433&enzyme=ALK+tyrosine+kinase+receptor&column=ki&startPg=0&Increment=50&submit=Search

> <Ligand HET ID in PDB>


> <PDB ID(s) for Ligand-Target Complex>


> <PubChem CID>
118105711

> <PubChem SID>
317230753

> <ChEBI ID of Ligand>


> <ChEMBL ID of Ligand>


> <DrugBank ID of Ligand>


> <IUPHAR_GRAC ID of Ligand>


> <KEGG ID of Ligand>


> <ZINC ID of Ligand>


> <Number of Protein Chains in Target (>1 implies a multichain complex)>
1

> <BindingDB Target Chain Sequence>
MGAIGLLWLLPLLLSTAAVGSGMGTGQRAGSPAAGPPLQPREPLSYSRLQRKSLAVDFVVPSLFRVYARDLLLPPSSSELKAGRPEARGSLALDCAPLLRLLGPAPGVSWTAGSPAPAEARTLSRVLKGGSVRKLRRAKQLVLELGEEAILEGCVGPPGEAAVGLLQFNLSELFSWWIRQGEGRLRIRLMPEKKASEVGREGRLSAAIRASQPRLLFQIFGTGHSSLESPTNMPSPSPDYFTWNLTWIMKDSFPFLSHRSRYGLECSFDFPCELEYSPPLHDLRNQSWSWRRIPSEEASQMDLLDGPGAERSKEMPRGSFLLLNTSADSKHTILSPWMRSSSEHCTLAVSVHRHLQPSGRYIAQLLPHNEAAREILLMPTPGKHGWTVLQGRIGRPDNPFRVALEYISSGNRSLSAVDFFALKNCSEGTSPGSKMALQSSFTCWNGTVLQLGQACDFHQDCAQGEDESQMCRKLPVGFYCNFEDGFCGWTQGTLSPHTPQWQVRTLKDARFQDHQDHALLLSTTDVPASESATVTSATFPAPIKSSPCELRMSWLIRGVLRGNVSLVLVENKTGKEQGRMVWHVAAYEGLSLWQWMVLPLLDVSDRFWLQMVAWWGQGSRAIVAFDNISISLDCYLTISGEDKILQNTAPKSRNLFERNPNKELKPGENSPRQTPIFDPTVHWLFTTCGASGPHGPTQAQCNNAYQNSNLSVEVGSEGPLKGIQIWKVPATDTYSISGYGAAGGKGGKNTMMRSHGVSVLGIFNLEKDDMLYILVGQQGEDACPSTNQLIQKVCIGENNVIEEEIRVNRSVHEWAGGGGGGGGATYVFKMKDGVPVPLIIAAGGGGRAYGAKTDTFHPERLENNSSVLGLNGNSGAAGGGGGWNDNTSLLWAGKSLQEGATGGHSCPQAMKKWGWETRGGFGGGGGGCSSGGGGGGYIGGNAASNNDPEMDGEDGVSFISPLGILYTPALKVMEGHGEVNIKHYLNCSHCEVDECHMDPESHKVICFCDHGTVLAEDGVSCIVSPTPEPHLPLSLILSVVTSALVAALVLAFSGIMIVYRRKHQELQAMQMELQSPEYKLSKLRTSTIMTDYNPNYCFAGKTSSISDLKEVPRKNITLIRGLGHGAFGEVYEGQVSGMPNDPSPLQVAVKTLPEVCSEQDELDFLMEALIISKFNHQNIVRCIGVSLQSLPRFILLELMAGGDLKSFLRETRPRPSQPSSLAMLDLLHVARDIACGCQYLEENHFIHRDIAARNCLLTCPGPGRVAKIGDFGMARDIYRASYYRKGGCAMLPVKWMPPEAFMEGIFTSKTDTWSFGVLLWEIFSLGYMPYPSKSNQEVLEFVTSGGRMDPPKNCPGPVYRIMTQCWQHQPEDRPNFAIILERIEYCTQDPDVINTALPIEYGPLVEEEEKVPVRPKDPEGVPPLLVSQQAKREEERSPAAPPPLPTTSSGKAAKKPTAAEISVRVPRGPAVEGGHVNMAFSQSNPPSELHKVHGSRNKPTSLWNPTYGSWFTEKPTKKNNPIAKKEPHDRGNLGLEGSCTVPPNVATGRLPGASLLLEPSSLTANMKEVPLFRLRHFPCGNVNYGYQQQGLPLEAATAPGAGHYEDTILKSKNSMNQPGP

> <PDB ID(s) of Target Chain>
2XB7,2XBA,3AOX,5FTO,5FTQ,6E0R,6EBW,6EDL,6MX8

> <UniProt (SwissProt) Recommended Name of Target Chain>
ALK tyrosine kinase receptor

> <UniProt (SwissProt) Entry Name of Target Chain>
ALK_HUMAN

> <UniProt (SwissProt) Primary ID of Target Chain>
Q9UM73

> <UniProt (SwissProt) Secondary ID(s) of Target Chain>
Q4ZFX9,Q53QQ6,Q53RZ4,Q59FI3,Q9Y4K6

> <UniProt (SwissProt) Alternative ID(s) of Target Chain>


> <UniProt (TrEMBL) Submitted Name of Target Chain>


> <UniProt (TrEMBL) Entry Name of Target Chain>


> <UniProt (TrEMBL) Primary ID of Target Chain>


> <UniProt (TrEMBL) Secondary ID(s) of Target Chain>


> <UniProt (TrEMBL) Alternative ID(s) of Target Chain>


$$$$
00079001.cdx

Vconf v2.0 Academic SN VC001-00000579
 43 47  0  0  0  0  0  0  0  0999 V2000
   -4.6440    2.8875    0.0000 N   0  0  0  0  0  0  0  0  0  0  0
   -4.6440    2.0625    0.0000 C   0  0  0  0  0  0  0  0  0  0  0
   -3.9296    1.6500    0.0000 C   0  0  0  0  0  0  0  0  0  0  0
   -3.2151    2.0625    0.0000 N   0  0  0  0  0  0  0  0  0  0  0
   -3.2151    2.8875    0.0000 C   0  0  0  0  0  0  0  0  0  0  0
   -3.9296    3.3000    0.0000 C   0  0  0  0  0  0  0  0  0  0  0
   -5.3585    3.3000    0.0000 C   0  0  0  0  0  0  0  0  0  0  0
   -2.5007    1.6500    0.0000 C   0  0  0  0  0  0  0  0  0  0  0
   -2.5007    0.8251    0.0000 C   0  0  0  0  0  0  0  0  0  0  0
   -1.7861    0.4125    0.0000 C   0  0  0  0  0  0  0  0  0  0  0
   -1.0717    0.8251    0.0000 C   0  0  0  0  0  0  0  0  0  0  0
   -1.0717    1.6500    0.0000 C   0  0  0  0  0  0  0  0  0  0  0
   -1.7861    2.0625    0.0000 C   0  0  0  0  0  0  0  0  0  0  0
   -0.3572    0.4125    0.0000 N   0  0  0  0  0  0  0  0  0  0  0
   -0.3572   -0.4125    0.0000 C   0  0  0  0  0  0  0  0  0  0  0
   -0.3572    2.0625    0.0000 O   0  0  0  0  0  0  0  0  0  0  0
    0.3572    1.6500    0.0000 C   0  0  0  0  0  0  0  0  0  0  0
   -1.0717   -0.8249    0.0000 C   0  0  0  0  0  0  0  0  0  0  0
   -1.0717   -1.6500    0.0000 C   0  0  0  0  0  0  0  0  0  0  0
   -0.3572   -2.0625    0.0000 N   0  0  0  0  0  0  0  0  0  0  0
    0.3572   -1.6500    0.0000 C   0  0  0  0  0  0  0  0  0  0  0
    0.3572   -0.8249    0.0000 N   0  0  0  0  0  0  0  0  0  0  0
   -1.7861   -0.4125    0.0000 Cl  0  0  0  0  0  0  0  0  0  0  0
    1.0717   -2.0625    0.0000 N   0  0  0  0  0  0  0  0  0  0  0
    1.7861   -1.6500    0.0000 C   0  0  0  0  0  0  0  0  0  0  0
    2.5007   -2.0625    0.0000 C   0  0  0  0  0  0  0  0  0  0  0
    3.2151   -1.6500    0.0000 C   0  0  0  0  0  0  0  0  0  0  0
    3.2151   -0.8249    0.0000 C   0  0  0  0  0  0  0  0  0  0  0
    2.5007   -0.4125    0.0000 C   0  0  0  0  0  0  0  0  0  0  0
    1.7861   -0.8249    0.0000 C   0  0  0  0  0  0  0  0  0  0  0
    2.5007   -2.8875    0.0000 O   0  0  0  0  0  0  0  0  0  0  0
    3.2151   -3.3000    0.0000 C   0  0  0  0  0  0  0  0  0  0  0
    3.9296   -0.4125    0.0000 N   0  0  0  0  0  0  0  0  0  0  0
    4.6440   -0.8249    0.0000 C   0  0  0  0  0  0  0  0  0  0  0
    5.3585   -0.4125    0.0000 C   0  0  0  0  0  0  0  0  0  0  0
    5.3585    0.4125    0.0000 N   0  0  0  0  0  0  0  0  0  0  0
    4.6440    0.8251    0.0000 C   0  0  0  0  0  0  0  0  0  0  0
    3.9296    0.4125    0.0000 C   0  0  0  0  0  0  0  0  0  0  0
    6.0730    0.8251    0.0000 C   0  0  0  0  0  0  0  0  0  0  0
    6.7874    0.4125    0.0000 C   0  0  0  0  0  0  0  0  0  0  0
    6.0730    1.6500    0.0000 O   0  0  0  0  0  0  0  0  0  0  0
   -6.0730    2.8875    0.0000 C   0  0  0  0  0  0  0  0  0  0  0
   -6.7874    3.3000    0.0000 O   0  0  0  0  0  0  0  0  0  0  0
  1  2  1  0  0  0  0
  2  3  1  0  0  0  0
  3  4  1  0  0  0  0
  4  5  1  0  0  0  0
  5  6  1  0  0  0  0
  6  1  1  0  0  0  0
  1  7  1  0  0  0  0
  4  8  1  0  0  0  0
  8  9  4  0  0  0  0
  9 10  4  0  0  0  0
 10 11  4  0  0  0  0
 11 12  4  0  0  0  0
 12 13  4  0  0  0  0
 13  8  4  0  0  0  0
 11 14  1  0  0  0  0
 14 15  1  0  0  0  0
 12 16  1  0  0  0  0
 16 17  1  0  0  0  0
 15 18  4  0  0  0  0
 18 19  4  0  0  0  0
 19 20  4  0  0  0  0
 20 21  4  0  0  0  0
 21 22  4  0  0  0  0
 22 15  4  0  0  0  0
 18 23  1  0  0  0  0
 21 24  1  0  0  0  0
 24 25  1  0  0  0  0
 25 26  4  0  0  0  0
 26 27  4  0  0  0  0
 27 28  4  0  0  0  0
 28 29  4  0  0  0  0
 29 30  4  0  0  0  0
 30 25  4  0  0  0  0
 26 31  1  0  0  0  0
 31 32  1  0  0  0  0
 28 33  1  0  0  0  0
 33 34  1  0  0  0  0
 34 35  1  0  0  0  0
 35 36  1  0  0  0  0
 36 37  1  0  0  0  0
 37 38  1  0  0  0  0
 38 33  1  0  0  0  0
 36 39  1  0  0  0  0
 39 40  1  0  0  0  0
 39 41  2  0  0  0  0
  7 42  1  0  0  0  0
 42 43  1  0  0  0  0
M  END
> <From>
www.bindingDB.org

> <BindingDB Reactant_set_id>
345690

> <Ligand InChI>
InChI=1S/C30H39ClN8O4/c1-21(41)37-12-14-39(15-13-37)23-5-7-26(28(19-23)43-3)34-30-32-20-24(31)29(35-30)33-25-6-4-22(18-27(25)42-2)38-10-8-36(9-11-38)16-17-40/h4-7,18-20,40H,8-17H2,1-3H3,(H2,32,33,34,35)

> <Ligand InChI Key>
YNVMLBKUQQKXLE-UHFFFAOYSA-N

> <BindingDB MonomerID>
193434

> <BindingDB Ligand Name>
US9199944, 16

> <Target Name Assigned by Curator or DataSource>
ALK tyrosine kinase receptor

> <Target Source Organism According to Curator or DataSource>
Homo sapiens

> <Ki (nM)>


> <IC50 (nM)>
 14

> <Kd (nM)>


> <EC50 (nM)>


> <kon (M-1-s-1)>


> <koff (s-1)>


> <pH>


> <Temp C>
25.00

> <Curation/DataSource>
US Patent

> <Article DOI>


> <PMID>


> <PubChem AID>


> <Patent Number>
US9199944

> <Authors>
Lee, K; Kim, HR; Park, CH; Lee, CO; Lee, JK; Jung, HJ; Cho, SY; Chae, CH; Choi, SU; Ha, JD

> <Institution>
KOREA RESEARCH INSTITUTE OF CHEMICAL TECHNOLOGY

> <Link to Ligand in BindingDB>
http://www.bindingdb.org/bind/chemsearch/marvin/MolStructure.jsp?monomerid=193434

> <Link to Ligand-Target Pair in BindingDB>
http://www.bindingdb.org/jsp/dbsearch/PrimarySearch_ki.jsp?energyterm=kJ/mole&tag=pol&polymerid=5809&target=ALK+tyrosine+kinase+receptor&column=ki&startPg=0&Increment=50&submit=Search

> <Link to Ligand-Target Pair in BindingDB>
http://www.bindingdb.org/jsp/dbsearch/PrimarySearch_ki.jsp?energyterm=kJ/mole&tag=r21&monomerid=193434&enzyme=ALK+tyrosine+kinase+receptor&column=ki&startPg=0&Increment=50&submit=Search

> <Ligand HET ID in PDB>


> <PDB ID(s) for Ligand-Target Complex>


> <PubChem CID>
118105667

> <PubChem SID>
317230754

> <ChEBI ID of Ligand>


> <ChEMBL ID of Ligand>


> <DrugBank ID of Ligand>


> <IUPHAR_GRAC ID of Ligand>


> <KEGG ID of Ligand>


> <ZINC ID of Ligand>


> <Number of Protein Chains in Target (>1 implies a multichain complex)>
1

> <BindingDB Target Chain Sequence>
MGAIGLLWLLPLLLSTAAVGSGMGTGQRAGSPAAGPPLQPREPLSYSRLQRKSLAVDFVVPSLFRVYARDLLLPPSSSELKAGRPEARGSLALDCAPLLRLLGPAPGVSWTAGSPAPAEARTLSRVLKGGSVRKLRRAKQLVLELGEEAILEGCVGPPGEAAVGLLQFNLSELFSWWIRQGEGRLRIRLMPEKKASEVGREGRLSAAIRASQPRLLFQIFGTGHSSLESPTNMPSPSPDYFTWNLTWIMKDSFPFLSHRSRYGLECSFDFPCELEYSPPLHDLRNQSWSWRRIPSEEASQMDLLDGPGAERSKEMPRGSFLLLNTSADSKHTILSPWMRSSSEHCTLAVSVHRHLQPSGRYIAQLLPHNEAAREILLMPTPGKHGWTVLQGRIGRPDNPFRVALEYISSGNRSLSAVDFFALKNCSEGTSPGSKMALQSSFTCWNGTVLQLGQACDFHQDCAQGEDESQMCRKLPVGFYCNFEDGFCGWTQGTLSPHTPQWQVRTLKDARFQDHQDHALLLSTTDVPASESATVTSATFPAPIKSSPCELRMSWLIRGVLRGNVSLVLVENKTGKEQGRMVWHVAAYEGLSLWQWMVLPLLDVSDRFWLQMVAWWGQGSRAIVAFDNISISLDCYLTISGEDKILQNTAPKSRNLFERNPNKELKPGENSPRQTPIFDPTVHWLFTTCGASGPHGPTQAQCNNAYQNSNLSVEVGSEGPLKGIQIWKVPATDTYSISGYGAAGGKGGKNTMMRSHGVSVLGIFNLEKDDMLYILVGQQGEDACPSTNQLIQKVCIGENNVIEEEIRVNRSVHEWAGGGGGGGGATYVFKMKDGVPVPLIIAAGGGGRAYGAKTDTFHPERLENNSSVLGLNGNSGAAGGGGGWNDNTSLLWAGKSLQEGATGGHSCPQAMKKWGWETRGGFGGGGGGCSSGGGGGGYIGGNAASNNDPEMDGEDGVSFISPLGILYTPALKVMEGHGEVNIKHYLNCSHCEVDECHMDPESHKVICFCDHGTVLAEDGVSCIVSPTPEPHLPLSLILSVVTSALVAALVLAFSGIMIVYRRKHQELQAMQMELQSPEYKLSKLRTSTIMTDYNPNYCFAGKTSSISDLKEVPRKNITLIRGLGHGAFGEVYEGQVSGMPNDPSPLQVAVKTLPEVCSEQDELDFLMEALIISKFNHQNIVRCIGVSLQSLPRFILLELMAGGDLKSFLRETRPRPSQPSSLAMLDLLHVARDIACGCQYLEENHFIHRDIAARNCLLTCPGPGRVAKIGDFGMARDIYRASYYRKGGCAMLPVKWMPPEAFMEGIFTSKTDTWSFGVLLWEIFSLGYMPYPSKSNQEVLEFVTSGGRMDPPKNCPGPVYRIMTQCWQHQPEDRPNFAIILERIEYCTQDPDVINTALPIEYGPLVEEEEKVPVRPKDPEGVPPLLVSQQAKREEERSPAAPPPLPTTSSGKAAKKPTAAEISVRVPRGPAVEGGHVNMAFSQSNPPSELHKVHGSRNKPTSLWNPTYGSWFTEKPTKKNNPIAKKEPHDRGNLGLEGSCTVPPNVATGRLPGASLLLEPSSLTANMKEVPLFRLRHFPCGNVNYGYQQQGLPLEAATAPGAGHYEDTILKSKNSMNQPGP

> <PDB ID(s) of Target Chain>
2XB7,2XBA,3AOX,5FTO,5FTQ,6E0R,6EBW,6EDL,6MX8

> <UniProt (SwissProt) Recommended Name of Target Chain>
ALK tyrosine kinase receptor

> <UniProt (SwissProt) Entry Name of Target Chain>
ALK_HUMAN

> <UniProt (SwissProt) Primary ID of Target Chain>
Q9UM73

> <UniProt (SwissProt) Secondary ID(s) of Target Chain>
Q4ZFX9,Q53QQ6,Q53RZ4,Q59FI3,Q9Y4K6

> <UniProt (SwissProt) Alternative ID(s) of Target Chain>


> <UniProt (TrEMBL) Submitted Name of Target Chain>


> <UniProt (TrEMBL) Entry Name of Target Chain>


> <UniProt (TrEMBL) Primary ID of Target Chain>


> <UniProt (TrEMBL) Secondary ID(s) of Target Chain>


> <UniProt (TrEMBL) Alternative ID(s) of Target Chain>


$$$$
00080001.cdx

Vconf v2.0 Academic SN VC001-00000579
 49 54  0  0  0  0  0  0  0  0999 V2000
   -5.0012    2.4749    0.0000 N   0  0  0  0  0  0  0  0  0  0  0
   -5.0012    1.6499    0.0000 C   0  0  0  0  0  0  0  0  0  0  0
   -4.2867    1.2375    0.0000 C   0  0  0  0  0  0  0  0  0  0  0
   -3.5722    1.6499    0.0000 N   0  0  0  0  0  0  0  0  0  0  0
   -3.5722    2.4749    0.0000 C   0  0  0  0  0  0  0  0  0  0  0
   -4.2867    2.8874    0.0000 C   0  0  0  0  0  0  0  0  0  0  0
   -5.7157    2.8874    0.0000 C   0  0  0  0  0  0  0  0  0  0  0
   -2.8578    1.2375    0.0000 C   0  0  0  0  0  0  0  0  0  0  0
   -2.8578    0.4125    0.0000 C   0  0  0  0  0  0  0  0  0  0  0
   -2.1433    0.0000    0.0000 C   0  0  0  0  0  0  0  0  0  0  0
   -1.4289    0.4125    0.0000 C   0  0  0  0  0  0  0  0  0  0  0
   -1.4289    1.2375    0.0000 C   0  0  0  0  0  0  0  0  0  0  0
   -2.1433    1.6499    0.0000 C   0  0  0  0  0  0  0  0  0  0  0
   -0.7144    0.0000    0.0000 N   0  0  0  0  0  0  0  0  0  0  0
   -0.7144   -0.8250    0.0000 C   0  0  0  0  0  0  0  0  0  0  0
   -0.7144    1.6500    0.0000 O   0  0  0  0  0  0  0  0  0  0  0
   -1.4289   -1.2375    0.0000 C   0  0  0  0  0  0  0  0  0  0  0
   -1.4289   -2.0625    0.0000 C   0  0  0  0  0  0  0  0  0  0  0
   -0.7144   -2.4749    0.0000 N   0  0  0  0  0  0  0  0  0  0  0
    0.0000   -2.0625    0.0000 C   0  0  0  0  0  0  0  0  0  0  0
    0.0000   -1.2375    0.0000 N   0  0  0  0  0  0  0  0  0  0  0
   -2.1433   -0.8250    0.0000 Cl  0  0  0  0  0  0  0  0  0  0  0
    0.7144   -2.4749    0.0000 N   0  0  0  0  0  0  0  0  0  0  0
    1.4289   -2.0625    0.0000 C   0  0  0  0  0  0  0  0  0  0  0
    2.1433   -2.4749    0.0000 C   0  0  0  0  0  0  0  0  0  0  0
    2.8578   -2.0625    0.0000 C   0  0  0  0  0  0  0  0  0  0  0
    2.8578   -1.2375    0.0000 C   0  0  0  0  0  0  0  0  0  0  0
    2.1433   -0.8250    0.0000 C   0  0  0  0  0  0  0  0  0  0  0
    1.4289   -1.2375    0.0000 C   0  0  0  0  0  0  0  0  0  0  0
    2.1433   -3.2999    0.0000 O   0  0  0  0  0  0  0  0  0  0  0
    2.8578   -3.7124    0.0000 C   0  0  0  0  0  0  0  0  0  0  0
    3.5722   -0.8250    0.0000 N   0  0  0  0  0  0  0  0  0  0  0
    4.2867   -1.2375    0.0000 C   0  0  0  0  0  0  0  0  0  0  0
    5.0012   -0.8250    0.0000 C   0  0  0  0  0  0  0  0  0  0  0
    5.0012    0.0000    0.0000 N   0  0  0  0  0  0  0  0  0  0  0
    4.2867    0.4125    0.0000 C   0  0  0  0  0  0  0  0  0  0  0
    3.5722    0.0000    0.0000 C   0  0  0  0  0  0  0  0  0  0  0
    5.7157    0.4125    0.0000 C   0  0  0  0  0  0  0  0  0  0  0
    6.4301    0.0000    0.0000 C   0  0  0  0  0  0  0  0  0  0  0
    5.7157    1.2375    0.0000 O   0  0  0  0  0  0  0  0  0  0  0
   -6.4301    2.4749    0.0000 C   0  0  0  0  0  0  0  0  0  0  0
   -5.7157    3.7124    0.0000 O   0  0  0  0  0  0  0  0  0  0  0
    0.0000    2.8876    0.0000 C   0  0  0  0  0  0  0  0  0  0  0
    0.0000    3.7126    0.0000 C   0  0  0  0  0  0  0  0  0  0  0
    0.7144    4.1251    0.0000 C   0  0  0  0  0  0  0  0  0  0  0
    1.4289    3.7126    0.0000 C   0  0  0  0  0  0  0  0  0  0  0
    1.4289    2.8876    0.0000 C   0  0  0  0  0  0  0  0  0  0  0
    0.7145    2.4751    0.0000 C   0  0  0  0  0  0  0  0  0  0  0
   -0.7145    2.4750    0.0000 C   0  0  0  0  0  0  0  0  0  0  0
  1  2  1  0  0  0  0
  2  3  1  0  0  0  0
  3  4  1  0  0  0  0
  4  5  1  0  0  0  0
  5  6  1  0  0  0  0
  6  1  1  0  0  0  0
  1  7  1  0  0  0  0
  4  8  1  0  0  0  0
  8  9  4  0  0  0  0
  9 10  4  0  0  0  0
 10 11  4  0  0  0  0
 11 12  4  0  0  0  0
 12 13  4  0  0  0  0
 13  8  4  0  0  0  0
 11 14  1  0  0  0  0
 14 15  1  0  0  0  0
 12 16  1  0  0  0  0
 15 17  4  0  0  0  0
 17 18  4  0  0  0  0
 18 19  4  0  0  0  0
 19 20  4  0  0  0  0
 20 21  4  0  0  0  0
 21 15  4  0  0  0  0
 17 22  1  0  0  0  0
 20 23  1  0  0  0  0
 23 24  1  0  0  0  0
 24 25  4  0  0  0  0
 25 26  4  0  0  0  0
 26 27  4  0  0  0  0
 27 28  4  0  0  0  0
 28 29  4  0  0  0  0
 29 24  4  0  0  0  0
 25 30  1  0  0  0  0
 30 31  1  0  0  0  0
 27 32  1  0  0  0  0
 32 33  1  0  0  0  0
 33 34  1  0  0  0  0
 34 35  1  0  0  0  0
 35 36  1  0  0  0  0
 36 37  1  0  0  0  0
 37 32  1  0  0  0  0
 35 38  1  0  0  0  0
 38 39  1  0  0  0  0
 38 40  2  0  0  0  0
  7 41  1  0  0  0  0
  7 42  2  0  0  0  0
 16 49  1  0  0  0  0
 43 44  4  0  0  0  0
 44 45  4  0  0  0  0
 45 46  4  0  0  0  0
 46 47  4  0  0  0  0
 47 48  4  0  0  0  0
 43 48  4  0  0  0  0
 43 49  1  0  0  0  0
M  END
> <From>
www.bindingDB.org

> <BindingDB Reactant_set_id>
345691

> <Ligand InChI>
InChI=1S/C36H41ClN8O4/c1-25(46)42-13-17-44(18-14-42)28-9-11-31(33(21-28)48-3)40-36-38-23-30(37)35(41-36)39-32-12-10-29(45-19-15-43(16-20-45)26(2)47)22-34(32)49-24-27-7-5-4-6-8-27/h4-12,21-23H,13-20,24H2,1-3H3,(H2,38,39,40,41)

> <Ligand InChI Key>
RVSHOOVYCIJMFC-UHFFFAOYSA-N

> <BindingDB MonomerID>
193435

> <BindingDB Ligand Name>
US9199944, 17

> <Target Name Assigned by Curator or DataSource>
ALK tyrosine kinase receptor

> <Target Source Organism According to Curator or DataSource>
Homo sapiens

> <Ki (nM)>


> <IC50 (nM)>
 1000

> <Kd (nM)>


> <EC50 (nM)>


> <kon (M-1-s-1)>


> <koff (s-1)>


> <pH>


> <Temp C>
25.00

> <Curation/DataSource>
US Patent

> <Article DOI>


> <PMID>


> <PubChem AID>


> <Patent Number>
US9199944

> <Authors>
Lee, K; Kim, HR; Park, CH; Lee, CO; Lee, JK; Jung, HJ; Cho, SY; Chae, CH; Choi, SU; Ha, JD

> <Institution>
KOREA RESEARCH INSTITUTE OF CHEMICAL TECHNOLOGY

> <Link to Ligand in BindingDB>
http://www.bindingdb.org/bind/chemsearch/marvin/MolStructure.jsp?monomerid=193435

> <Link to Ligand-Target Pair in BindingDB>
http://www.bindingdb.org/jsp/dbsearch/PrimarySearch_ki.jsp?energyterm=kJ/mole&tag=pol&polymerid=5809&target=ALK+tyrosine+kinase+receptor&column=ki&startPg=0&Increment=50&submit=Search

> <Link to Ligand-Target Pair in BindingDB>
http://www.bindingdb.org/jsp/dbsearch/PrimarySearch_ki.jsp?energyterm=kJ/mole&tag=r21&monomerid=193435&enzyme=ALK+tyrosine+kinase+receptor&column=ki&startPg=0&Increment=50&submit=Search

> <Ligand HET ID in PDB>


> <PDB ID(s) for Ligand-Target Complex>


> <PubChem CID>
72546960

> <PubChem SID>
317230755

> <ChEBI ID of Ligand>


> <ChEMBL ID of Ligand>


> <DrugBank ID of Ligand>


> <IUPHAR_GRAC ID of Ligand>


> <KEGG ID of Ligand>


> <ZINC ID of Ligand>


> <Number of Protein Chains in Target (>1 implies a multichain complex)>
1

> <BindingDB Target Chain Sequence>
MGAIGLLWLLPLLLSTAAVGSGMGTGQRAGSPAAGPPLQPREPLSYSRLQRKSLAVDFVVPSLFRVYARDLLLPPSSSELKAGRPEARGSLALDCAPLLRLLGPAPGVSWTAGSPAPAEARTLSRVLKGGSVRKLRRAKQLVLELGEEAILEGCVGPPGEAAVGLLQFNLSELFSWWIRQGEGRLRIRLMPEKKASEVGREGRLSAAIRASQPRLLFQIFGTGHSSLESPTNMPSPSPDYFTWNLTWIMKDSFPFLSHRSRYGLECSFDFPCELEYSPPLHDLRNQSWSWRRIPSEEASQMDLLDGPGAERSKEMPRGSFLLLNTSADSKHTILSPWMRSSSEHCTLAVSVHRHLQPSGRYIAQLLPHNEAAREILLMPTPGKHGWTVLQGRIGRPDNPFRVALEYISSGNRSLSAVDFFALKNCSEGTSPGSKMALQSSFTCWNGTVLQLGQACDFHQDCAQGEDESQMCRKLPVGFYCNFEDGFCGWTQGTLSPHTPQWQVRTLKDARFQDHQDHALLLSTTDVPASESATVTSATFPAPIKSSPCELRMSWLIRGVLRGNVSLVLVENKTGKEQGRMVWHVAAYEGLSLWQWMVLPLLDVSDRFWLQMVAWWGQGSRAIVAFDNISISLDCYLTISGEDKILQNTAPKSRNLFERNPNKELKPGENSPRQTPIFDPTVHWLFTTCGASGPHGPTQAQCNNAYQNSNLSVEVGSEGPLKGIQIWKVPATDTYSISGYGAAGGKGGKNTMMRSHGVSVLGIFNLEKDDMLYILVGQQGEDACPSTNQLIQKVCIGENNVIEEEIRVNRSVHEWAGGGGGGGGATYVFKMKDGVPVPLIIAAGGGGRAYGAKTDTFHPERLENNSSVLGLNGNSGAAGGGGGWNDNTSLLWAGKSLQEGATGGHSCPQAMKKWGWETRGGFGGGGGGCSSGGGGGGYIGGNAASNNDPEMDGEDGVSFISPLGILYTPALKVMEGHGEVNIKHYLNCSHCEVDECHMDPESHKVICFCDHGTVLAEDGVSCIVSPTPEPHLPLSLILSVVTSALVAALVLAFSGIMIVYRRKHQELQAMQMELQSPEYKLSKLRTSTIMTDYNPNYCFAGKTSSISDLKEVPRKNITLIRGLGHGAFGEVYEGQVSGMPNDPSPLQVAVKTLPEVCSEQDELDFLMEALIISKFNHQNIVRCIGVSLQSLPRFILLELMAGGDLKSFLRETRPRPSQPSSLAMLDLLHVARDIACGCQYLEENHFIHRDIAARNCLLTCPGPGRVAKIGDFGMARDIYRASYYRKGGCAMLPVKWMPPEAFMEGIFTSKTDTWSFGVLLWEIFSLGYMPYPSKSNQEVLEFVTSGGRMDPPKNCPGPVYRIMTQCWQHQPEDRPNFAIILERIEYCTQDPDVINTALPIEYGPLVEEEEKVPVRPKDPEGVPPLLVSQQAKREEERSPAAPPPLPTTSSGKAAKKPTAAEISVRVPRGPAVEGGHVNMAFSQSNPPSELHKVHGSRNKPTSLWNPTYGSWFTEKPTKKNNPIAKKEPHDRGNLGLEGSCTVPPNVATGRLPGASLLLEPSSLTANMKEVPLFRLRHFPCGNVNYGYQQQGLPLEAATAPGAGHYEDTILKSKNSMNQPGP

> <PDB ID(s) of Target Chain>
2XB7,2XBA,3AOX,5FTO,5FTQ,6E0R,6EBW,6EDL,6MX8

> <UniProt (SwissProt) Recommended Name of Target Chain>
ALK tyrosine kinase receptor

> <UniProt (SwissProt) Entry Name of Target Chain>
ALK_HUMAN

> <UniProt (SwissProt) Primary ID of Target Chain>
Q9UM73

> <UniProt (SwissProt) Secondary ID(s) of Target Chain>
Q4ZFX9,Q53QQ6,Q53RZ4,Q59FI3,Q9Y4K6

> <UniProt (SwissProt) Alternative ID(s) of Target Chain>


> <UniProt (TrEMBL) Submitted Name of Target Chain>


> <UniProt (TrEMBL) Entry Name of Target Chain>


> <UniProt (TrEMBL) Primary ID of Target Chain>


> <UniProt (TrEMBL) Secondary ID(s) of Target Chain>


> <UniProt (TrEMBL) Alternative ID(s) of Target Chain>


$$$$
00083001.cdx

Vconf v2.0 Academic SN VC001-00000579
 44 48  0  0  0  0  0  0  0  0999 V2000
   -4.6441    2.4750    0.0000 N   0  0  0  0  0  0  0  0  0  0  0
   -4.6441    1.6500    0.0000 C   0  0  0  0  0  0  0  0  0  0  0
   -3.9297    1.2376    0.0000 C   0  0  0  0  0  0  0  0  0  0  0
   -3.2152    1.6500    0.0000 N   0  0  0  0  0  0  0  0  0  0  0
   -3.2152    2.4750    0.0000 C   0  0  0  0  0  0  0  0  0  0  0
   -3.9297    2.8876    0.0000 C   0  0  0  0  0  0  0  0  0  0  0
   -5.3586    2.8876    0.0000 C   0  0  0  0  0  0  0  0  0  0  0
   -2.5007    1.2376    0.0000 C   0  0  0  0  0  0  0  0  0  0  0
   -2.5007    0.4126    0.0000 C   0  0  0  0  0  0  0  0  0  0  0
   -1.7862    0.0000    0.0000 C   0  0  0  0  0  0  0  0  0  0  0
   -1.0718    0.4126    0.0000 C   0  0  0  0  0  0  0  0  0  0  0
   -1.0718    1.2376    0.0000 C   0  0  0  0  0  0  0  0  0  0  0
   -1.7862    1.6500    0.0000 C   0  0  0  0  0  0  0  0  0  0  0
   -0.3573    0.0000    0.0000 N   0  0  0  0  0  0  0  0  0  0  0
   -0.3573   -0.8250    0.0000 C   0  0  0  0  0  0  0  0  0  0  0
   -0.3573    1.6500    0.0000 O   0  0  0  0  0  0  0  0  0  0  0
    0.3573    1.2376    0.0000 C   0  0  0  0  0  0  0  0  0  0  0
   -1.0718   -1.2376    0.0000 C   0  0  0  0  0  0  0  0  0  0  0
   -1.0718   -2.0626    0.0000 C   0  0  0  0  0  0  0  0  0  0  0
   -0.3573   -2.4750    0.0000 N   0  0  0  0  0  0  0  0  0  0  0
    0.3573   -2.0626    0.0000 C   0  0  0  0  0  0  0  0  0  0  0
    0.3573   -1.2376    0.0000 N   0  0  0  0  0  0  0  0  0  0  0
   -1.7862   -0.8250    0.0000 Cl  0  0  0  0  0  0  0  0  0  0  0
    1.0718   -2.4750    0.0000 N   0  0  0  0  0  0  0  0  0  0  0
    1.7862   -2.0626    0.0000 C   0  0  0  0  0  0  0  0  0  0  0
    2.5007   -2.4750    0.0000 C   0  0  0  0  0  0  0  0  0  0  0
    3.2152   -2.0626    0.0000 C   0  0  0  0  0  0  0  0  0  0  0
    3.2152   -1.2376    0.0000 C   0  0  0  0  0  0  0  0  0  0  0
    2.5007   -0.8250    0.0000 C   0  0  0  0  0  0  0  0  0  0  0
    1.7862   -1.2376    0.0000 C   0  0  0  0  0  0  0  0  0  0  0
    2.5007   -3.3000    0.0000 O   0  0  0  0  0  0  0  0  0  0  0
    3.2152   -3.7126    0.0000 C   0  0  0  0  0  0  0  0  0  0  0
    3.9297   -0.8250    0.0000 N   0  0  0  0  0  0  0  0  0  0  0
    4.6441   -1.2376    0.0000 C   0  0  0  0  0  0  0  0  0  0  0
    5.3586   -0.8250    0.0000 C   0  0  0  0  0  0  0  0  0  0  0
    5.3586    0.0000    0.0000 N   0  0  0  0  0  0  0  0  0  0  0
    4.6441    0.4126    0.0000 C   0  0  0  0  0  0  0  0  0  0  0
    3.9297    0.0000    0.0000 C   0  0  0  0  0  0  0  0  0  0  0
    6.0731    0.4126    0.0000 C   0  0  0  0  0  0  0  0  0  0  0
    6.7876    0.0000    0.0000 C   0  0  0  0  0  0  0  0  0  0  0
    6.0731    1.2376    0.0000 O   0  0  0  0  0  0  0  0  0  0  0
   -6.0731    2.4750    0.0000 O   0  0  0  0  0  0  0  0  0  0  0
   -5.3586    3.7126    0.0000 O   0  0  0  0  0  0  0  0  0  0  0
   -6.7876    2.8876    0.0000 C   0  0  0  0  0  0  0  0  0  0  0
  1  2  1  0  0  0  0
  2  3  1  0  0  0  0
  3  4  1  0  0  0  0
  4  5  1  0  0  0  0
  5  6  1  0  0  0  0
  6  1  1  0  0  0  0
  1  7  1  0  0  0  0
  4  8  1  0  0  0  0
  8  9  4  0  0  0  0
  9 10  4  0  0  0  0
 10 11  4  0  0  0  0
 11 12  4  0  0  0  0
 12 13  4  0  0  0  0
 13  8  4  0  0  0  0
 11 14  1  0  0  0  0
 14 15  1  0  0  0  0
 12 16  1  0  0  0  0
 16 17  1  0  0  0  0
 15 18  4  0  0  0  0
 18 19  4  0  0  0  0
 19 20  4  0  0  0  0
 20 21  4  0  0  0  0
 21 22  4  0  0  0  0
 22 15  4  0  0  0  0
 18 23  1  0  0  0  0
 21 24  1  0  0  0  0
 24 25  1  0  0  0  0
 25 26  4  0  0  0  0
 26 27  4  0  0  0  0
 27 28  4  0  0  0  0
 28 29  4  0  0  0  0
 29 30  4  0  0  0  0
 30 25  4  0  0  0  0
 26 31  1  0  0  0  0
 31 32  1  0  0  0  0
 28 33  1  0  0  0  0
 33 34  1  0  0  0  0
 34 35  1  0  0  0  0
 35 36  1  0  0  0  0
 36 37  1  0  0  0  0
 37 38  1  0  0  0  0
 38 33  1  0  0  0  0
 36 39  1  0  0  0  0
 39 40  1  0  0  0  0
 39 41  2  0  0  0  0
  7 42  1  0  0  0  0
  7 43  2  0  0  0  0
 42 44  1  0  0  0  0
M  END
> <From>
www.bindingDB.org

> <BindingDB Reactant_set_id>
345694

> <Ligand InChI>
InChI=1S/C30H37ClN8O5/c1-20(40)36-9-11-37(12-10-36)22-6-8-25(27(18-22)43-3)34-29-32-19-23(31)28(35-29)33-24-7-5-21(17-26(24)42-2)38-13-15-39(16-14-38)30(41)44-4/h5-8,17-19H,9-16H2,1-4H3,(H2,32,33,34,35)

> <Ligand InChI Key>
PSXVGWQTUJSIMI-UHFFFAOYSA-N

> <BindingDB MonomerID>
193438

> <BindingDB Ligand Name>
US9199944, 20

> <Target Name Assigned by Curator or DataSource>
ALK tyrosine kinase receptor

> <Target Source Organism According to Curator or DataSource>
Homo sapiens

> <Ki (nM)>


> <IC50 (nM)>
 130

> <Kd (nM)>


> <EC50 (nM)>


> <kon (M-1-s-1)>


> <koff (s-1)>


> <pH>


> <Temp C>
25.00

> <Curation/DataSource>
US Patent

> <Article DOI>


> <PMID>


> <PubChem AID>


> <Patent Number>
US9199944

> <Authors>
Lee, K; Kim, HR; Park, CH; Lee, CO; Lee, JK; Jung, HJ; Cho, SY; Chae, CH; Choi, SU; Ha, JD

> <Institution>
KOREA RESEARCH INSTITUTE OF CHEMICAL TECHNOLOGY

> <Link to Ligand in BindingDB>
http://www.bindingdb.org/bind/chemsearch/marvin/MolStructure.jsp?monomerid=193438

> <Link to Ligand-Target Pair in BindingDB>
http://www.bindingdb.org/jsp/dbsearch/PrimarySearch_ki.jsp?energyterm=kJ/mole&tag=pol&polymerid=5809&target=ALK+tyrosine+kinase+receptor&column=ki&startPg=0&Increment=50&submit=Search

> <Link to Ligand-Target Pair in BindingDB>
http://www.bindingdb.org/jsp/dbsearch/PrimarySearch_ki.jsp?energyterm=kJ/mole&tag=r21&monomerid=193438&enzyme=ALK+tyrosine+kinase+receptor&column=ki&startPg=0&Increment=50&submit=Search

> <Ligand HET ID in PDB>


> <PDB ID(s) for Ligand-Target Complex>


> <PubChem CID>
118105688

> <PubChem SID>
317230758

> <ChEBI ID of Ligand>


> <ChEMBL ID of Ligand>


> <DrugBank ID of Ligand>


> <IUPHAR_GRAC ID of Ligand>


> <KEGG ID of Ligand>


> <ZINC ID of Ligand>


> <Number of Protein Chains in Target (>1 implies a multichain complex)>
1

> <BindingDB Target Chain Sequence>
MGAIGLLWLLPLLLSTAAVGSGMGTGQRAGSPAAGPPLQPREPLSYSRLQRKSLAVDFVVPSLFRVYARDLLLPPSSSELKAGRPEARGSLALDCAPLLRLLGPAPGVSWTAGSPAPAEARTLSRVLKGGSVRKLRRAKQLVLELGEEAILEGCVGPPGEAAVGLLQFNLSELFSWWIRQGEGRLRIRLMPEKKASEVGREGRLSAAIRASQPRLLFQIFGTGHSSLESPTNMPSPSPDYFTWNLTWIMKDSFPFLSHRSRYGLECSFDFPCELEYSPPLHDLRNQSWSWRRIPSEEASQMDLLDGPGAERSKEMPRGSFLLLNTSADSKHTILSPWMRSSSEHCTLAVSVHRHLQPSGRYIAQLLPHNEAAREILLMPTPGKHGWTVLQGRIGRPDNPFRVALEYISSGNRSLSAVDFFALKNCSEGTSPGSKMALQSSFTCWNGTVLQLGQACDFHQDCAQGEDESQMCRKLPVGFYCNFEDGFCGWTQGTLSPHTPQWQVRTLKDARFQDHQDHALLLSTTDVPASESATVTSATFPAPIKSSPCELRMSWLIRGVLRGNVSLVLVENKTGKEQGRMVWHVAAYEGLSLWQWMVLPLLDVSDRFWLQMVAWWGQGSRAIVAFDNISISLDCYLTISGEDKILQNTAPKSRNLFERNPNKELKPGENSPRQTPIFDPTVHWLFTTCGASGPHGPTQAQCNNAYQNSNLSVEVGSEGPLKGIQIWKVPATDTYSISGYGAAGGKGGKNTMMRSHGVSVLGIFNLEKDDMLYILVGQQGEDACPSTNQLIQKVCIGENNVIEEEIRVNRSVHEWAGGGGGGGGATYVFKMKDGVPVPLIIAAGGGGRAYGAKTDTFHPERLENNSSVLGLNGNSGAAGGGGGWNDNTSLLWAGKSLQEGATGGHSCPQAMKKWGWETRGGFGGGGGGCSSGGGGGGYIGGNAASNNDPEMDGEDGVSFISPLGILYTPALKVMEGHGEVNIKHYLNCSHCEVDECHMDPESHKVICFCDHGTVLAEDGVSCIVSPTPEPHLPLSLILSVVTSALVAALVLAFSGIMIVYRRKHQELQAMQMELQSPEYKLSKLRTSTIMTDYNPNYCFAGKTSSISDLKEVPRKNITLIRGLGHGAFGEVYEGQVSGMPNDPSPLQVAVKTLPEVCSEQDELDFLMEALIISKFNHQNIVRCIGVSLQSLPRFILLELMAGGDLKSFLRETRPRPSQPSSLAMLDLLHVARDIACGCQYLEENHFIHRDIAARNCLLTCPGPGRVAKIGDFGMARDIYRASYYRKGGCAMLPVKWMPPEAFMEGIFTSKTDTWSFGVLLWEIFSLGYMPYPSKSNQEVLEFVTSGGRMDPPKNCPGPVYRIMTQCWQHQPEDRPNFAIILERIEYCTQDPDVINTALPIEYGPLVEEEEKVPVRPKDPEGVPPLLVSQQAKREEERSPAAPPPLPTTSSGKAAKKPTAAEISVRVPRGPAVEGGHVNMAFSQSNPPSELHKVHGSRNKPTSLWNPTYGSWFTEKPTKKNNPIAKKEPHDRGNLGLEGSCTVPPNVATGRLPGASLLLEPSSLTANMKEVPLFRLRHFPCGNVNYGYQQQGLPLEAATAPGAGHYEDTILKSKNSMNQPGP

> <PDB ID(s) of Target Chain>
2XB7,2XBA,3AOX,5FTO,5FTQ,6E0R,6EBW,6EDL,6MX8

> <UniProt (SwissProt) Recommended Name of Target Chain>
ALK tyrosine kinase receptor

> <UniProt (SwissProt) Entry Name of Target Chain>
ALK_HUMAN

> <UniProt (SwissProt) Primary ID of Target Chain>
Q9UM73

> <UniProt (SwissProt) Secondary ID(s) of Target Chain>
Q4ZFX9,Q53QQ6,Q53RZ4,Q59FI3,Q9Y4K6

> <UniProt (SwissProt) Alternative ID(s) of Target Chain>


> <UniProt (TrEMBL) Submitted Name of Target Chain>


> <UniProt (TrEMBL) Entry Name of Target Chain>


> <UniProt (TrEMBL) Primary ID of Target Chain>


> <UniProt (TrEMBL) Secondary ID(s) of Target Chain>


> <UniProt (TrEMBL) Alternative ID(s) of Target Chain>


$$$$
00084001.cdx

Vconf v2.0 Academic SN VC001-00000579
 44 48  0  0  0  0  0  0  0  0999 V2000
   -4.9462    2.4750    0.0000 N   0  0  0  0  0  0  0  0  0  0  0
   -4.9462    1.6500    0.0000 C   0  0  0  0  0  0  0  0  0  0  0
   -4.2316    1.2376    0.0000 C   0  0  0  0  0  0  0  0  0  0  0
   -3.5171    1.6500    0.0000 N   0  0  0  0  0  0  0  0  0  0  0
   -3.5171    2.4750    0.0000 C   0  0  0  0  0  0  0  0  0  0  0
   -4.2316    2.8876    0.0000 C   0  0  0  0  0  0  0  0  0  0  0
   -5.6607    2.8876    0.0000 S   0  0  0  0  0  0  0  0  0  0  0
   -2.8026    1.2376    0.0000 C   0  0  0  0  0  0  0  0  0  0  0
   -2.8026    0.4126    0.0000 C   0  0  0  0  0  0  0  0  0  0  0
   -2.0882    0.0000    0.0000 C   0  0  0  0  0  0  0  0  0  0  0
   -1.3737    0.4126    0.0000 C   0  0  0  0  0  0  0  0  0  0  0
   -1.3737    1.2376    0.0000 C   0  0  0  0  0  0  0  0  0  0  0
   -2.0882    1.6500    0.0000 C   0  0  0  0  0  0  0  0  0  0  0
   -0.6592    0.0000    0.0000 N   0  0  0  0  0  0  0  0  0  0  0
   -0.6592   -0.8250    0.0000 C   0  0  0  0  0  0  0  0  0  0  0
   -0.6592    1.6500    0.0000 O   0  0  0  0  0  0  0  0  0  0  0
    0.0553    1.2376    0.0000 C   0  0  0  0  0  0  0  0  0  0  0
   -1.3737   -1.2376    0.0000 C   0  0  0  0  0  0  0  0  0  0  0
   -1.3737   -2.0626    0.0000 C   0  0  0  0  0  0  0  0  0  0  0
   -0.6592   -2.4750    0.0000 N   0  0  0  0  0  0  0  0  0  0  0
    0.0553   -2.0626    0.0000 C   0  0  0  0  0  0  0  0  0  0  0
    0.0553   -1.2376    0.0000 N   0  0  0  0  0  0  0  0  0  0  0
   -2.0882   -0.8250    0.0000 Cl  0  0  0  0  0  0  0  0  0  0  0
    0.7697   -2.4750    0.0000 N   0  0  0  0  0  0  0  0  0  0  0
    1.4842   -2.0626    0.0000 C   0  0  0  0  0  0  0  0  0  0  0
    2.1987   -2.4750    0.0000 C   0  0  0  0  0  0  0  0  0  0  0
    2.9132   -2.0626    0.0000 C   0  0  0  0  0  0  0  0  0  0  0
    2.9132   -1.2376    0.0000 C   0  0  0  0  0  0  0  0  0  0  0
    2.1987   -0.8250    0.0000 C   0  0  0  0  0  0  0  0  0  0  0
    1.4842   -1.2376    0.0000 C   0  0  0  0  0  0  0  0  0  0  0
    2.1987   -3.3000    0.0000 O   0  0  0  0  0  0  0  0  0  0  0
    2.9132   -3.7126    0.0000 C   0  0  0  0  0  0  0  0  0  0  0
    3.6276   -0.8250    0.0000 N   0  0  0  0  0  0  0  0  0  0  0
    4.3421   -1.2376    0.0000 C   0  0  0  0  0  0  0  0  0  0  0
    5.0567   -0.8250    0.0000 C   0  0  0  0  0  0  0  0  0  0  0
    5.0567    0.0000    0.0000 N   0  0  0  0  0  0  0  0  0  0  0
    4.3421    0.4126    0.0000 C   0  0  0  0  0  0  0  0  0  0  0
    3.6276    0.0000    0.0000 C   0  0  0  0  0  0  0  0  0  0  0
    5.7712    0.4126    0.0000 C   0  0  0  0  0  0  0  0  0  0  0
    6.4857    0.0000    0.0000 C   0  0  0  0  0  0  0  0  0  0  0
    5.7712    1.2376    0.0000 O   0  0  0  0  0  0  0  0  0  0  0
   -5.6607    3.7126    0.0000 O   0  0  0  0  0  0  0  0  0  0  0
   -6.4857    2.8876    0.0000 N   0  0  0  0  0  0  0  0  0  0  0
   -5.8741    2.0906    0.0000 O   0  0  0  0  0  0  0  0  0  0  0
  1  2  1  0  0  0  0
  2  3  1  0  0  0  0
  3  4  1  0  0  0  0
  4  5  1  0  0  0  0
  5  6  1  0  0  0  0
  6  1  1  0  0  0  0
  1  7  1  0  0  0  0
  4  8  1  0  0  0  0
  8  9  4  0  0  0  0
  9 10  4  0  0  0  0
 10 11  4  0  0  0  0
 11 12  4  0  0  0  0
 12 13  4  0  0  0  0
 13  8  4  0  0  0  0
 11 14  1  0  0  0  0
 14 15  1  0  0  0  0
 12 16  1  0  0  0  0
 16 17  1  0  0  0  0
 15 18  4  0  0  0  0
 18 19  4  0  0  0  0
 19 20  4  0  0  0  0
 20 21  4  0  0  0  0
 21 22  4  0  0  0  0
 22 15  4  0  0  0  0
 18 23  1  0  0  0  0
 21 24  1  0  0  0  0
 24 25  1  0  0  0  0
 25 26  4  0  0  0  0
 26 27  4  0  0  0  0
 27 28  4  0  0  0  0
 28 29  4  0  0  0  0
 29 30  4  0  0  0  0
 30 25  4  0  0  0  0
 26 31  1  0  0  0  0
 31 32  1  0  0  0  0
 28 33  1  0  0  0  0
 33 34  1  0  0  0  0
 34 35  1  0  0  0  0
 35 36  1  0  0  0  0
 36 37  1  0  0  0  0
 37 38  1  0  0  0  0
 38 33  1  0  0  0  0
 36 39  1  0  0  0  0
 39 40  1  0  0  0  0
 39 41  2  0  0  0  0
  7 42  2  0  0  0  0
  7 43  1  0  0  0  0
  7 44  2  0  0  0  0
M  END
> <From>
www.bindingDB.org

> <BindingDB Reactant_set_id>
345695

> <Ligand InChI>
InChI=1S/C28H36ClN9O5S/c1-19(39)35-8-10-36(11-9-35)20-5-7-24(26(17-20)43-3)33-28-31-18-22(29)27(34-28)32-23-6-4-21(16-25(23)42-2)37-12-14-38(15-13-37)44(30,40)41/h4-7,16-18H,8-15H2,1-3H3,(H2,30,40,41)(H2,31,32,33,34)

> <Ligand InChI Key>
ZEHFEFBHDUUCCU-UHFFFAOYSA-N

> <BindingDB MonomerID>
193439

> <BindingDB Ligand Name>
US9199944, 21

> <Target Name Assigned by Curator or DataSource>
ALK tyrosine kinase receptor

> <Target Source Organism According to Curator or DataSource>
Homo sapiens

> <Ki (nM)>


> <IC50 (nM)>
 12

> <Kd (nM)>


> <EC50 (nM)>


> <kon (M-1-s-1)>


> <koff (s-1)>


> <pH>


> <Temp C>
25.00

> <Curation/DataSource>
US Patent

> <Article DOI>


> <PMID>


> <PubChem AID>


> <Patent Number>
US9199944

> <Authors>
Lee, K; Kim, HR; Park, CH; Lee, CO; Lee, JK; Jung, HJ; Cho, SY; Chae, CH; Choi, SU; Ha, JD

> <Institution>
KOREA RESEARCH INSTITUTE OF CHEMICAL TECHNOLOGY

> <Link to Ligand in BindingDB>
http://www.bindingdb.org/bind/chemsearch/marvin/MolStructure.jsp?monomerid=193439

> <Link to Ligand-Target Pair in BindingDB>
http://www.bindingdb.org/jsp/dbsearch/PrimarySearch_ki.jsp?energyterm=kJ/mole&tag=pol&polymerid=5809&target=ALK+tyrosine+kinase+receptor&column=ki&startPg=0&Increment=50&submit=Search

> <Link to Ligand-Target Pair in BindingDB>
http://www.bindingdb.org/jsp/dbsearch/PrimarySearch_ki.jsp?energyterm=kJ/mole&tag=r21&monomerid=193439&enzyme=ALK+tyrosine+kinase+receptor&column=ki&startPg=0&Increment=50&submit=Search

> <Ligand HET ID in PDB>


> <PDB ID(s) for Ligand-Target Complex>


> <PubChem CID>
118105689

> <PubChem SID>
317230759

> <ChEBI ID of Ligand>


> <ChEMBL ID of Ligand>


> <DrugBank ID of Ligand>


> <IUPHAR_GRAC ID of Ligand>


> <KEGG ID of Ligand>


> <ZINC ID of Ligand>


> <Number of Protein Chains in Target (>1 implies a multichain complex)>
1

> <BindingDB Target Chain Sequence>
MGAIGLLWLLPLLLSTAAVGSGMGTGQRAGSPAAGPPLQPREPLSYSRLQRKSLAVDFVVPSLFRVYARDLLLPPSSSELKAGRPEARGSLALDCAPLLRLLGPAPGVSWTAGSPAPAEARTLSRVLKGGSVRKLRRAKQLVLELGEEAILEGCVGPPGEAAVGLLQFNLSELFSWWIRQGEGRLRIRLMPEKKASEVGREGRLSAAIRASQPRLLFQIFGTGHSSLESPTNMPSPSPDYFTWNLTWIMKDSFPFLSHRSRYGLECSFDFPCELEYSPPLHDLRNQSWSWRRIPSEEASQMDLLDGPGAERSKEMPRGSFLLLNTSADSKHTILSPWMRSSSEHCTLAVSVHRHLQPSGRYIAQLLPHNEAAREILLMPTPGKHGWTVLQGRIGRPDNPFRVALEYISSGNRSLSAVDFFALKNCSEGTSPGSKMALQSSFTCWNGTVLQLGQACDFHQDCAQGEDESQMCRKLPVGFYCNFEDGFCGWTQGTLSPHTPQWQVRTLKDARFQDHQDHALLLSTTDVPASESATVTSATFPAPIKSSPCELRMSWLIRGVLRGNVSLVLVENKTGKEQGRMVWHVAAYEGLSLWQWMVLPLLDVSDRFWLQMVAWWGQGSRAIVAFDNISISLDCYLTISGEDKILQNTAPKSRNLFERNPNKELKPGENSPRQTPIFDPTVHWLFTTCGASGPHGPTQAQCNNAYQNSNLSVEVGSEGPLKGIQIWKVPATDTYSISGYGAAGGKGGKNTMMRSHGVSVLGIFNLEKDDMLYILVGQQGEDACPSTNQLIQKVCIGENNVIEEEIRVNRSVHEWAGGGGGGGGATYVFKMKDGVPVPLIIAAGGGGRAYGAKTDTFHPERLENNSSVLGLNGNSGAAGGGGGWNDNTSLLWAGKSLQEGATGGHSCPQAMKKWGWETRGGFGGGGGGCSSGGGGGGYIGGNAASNNDPEMDGEDGVSFISPLGILYTPALKVMEGHGEVNIKHYLNCSHCEVDECHMDPESHKVICFCDHGTVLAEDGVSCIVSPTPEPHLPLSLILSVVTSALVAALVLAFSGIMIVYRRKHQELQAMQMELQSPEYKLSKLRTSTIMTDYNPNYCFAGKTSSISDLKEVPRKNITLIRGLGHGAFGEVYEGQVSGMPNDPSPLQVAVKTLPEVCSEQDELDFLMEALIISKFNHQNIVRCIGVSLQSLPRFILLELMAGGDLKSFLRETRPRPSQPSSLAMLDLLHVARDIACGCQYLEENHFIHRDIAARNCLLTCPGPGRVAKIGDFGMARDIYRASYYRKGGCAMLPVKWMPPEAFMEGIFTSKTDTWSFGVLLWEIFSLGYMPYPSKSNQEVLEFVTSGGRMDPPKNCPGPVYRIMTQCWQHQPEDRPNFAIILERIEYCTQDPDVINTALPIEYGPLVEEEEKVPVRPKDPEGVPPLLVSQQAKREEERSPAAPPPLPTTSSGKAAKKPTAAEISVRVPRGPAVEGGHVNMAFSQSNPPSELHKVHGSRNKPTSLWNPTYGSWFTEKPTKKNNPIAKKEPHDRGNLGLEGSCTVPPNVATGRLPGASLLLEPSSLTANMKEVPLFRLRHFPCGNVNYGYQQQGLPLEAATAPGAGHYEDTILKSKNSMNQPGP

> <PDB ID(s) of Target Chain>
2XB7,2XBA,3AOX,5FTO,5FTQ,6E0R,6EBW,6EDL,6MX8

> <UniProt (SwissProt) Recommended Name of Target Chain>
ALK tyrosine kinase receptor

> <UniProt (SwissProt) Entry Name of Target Chain>
ALK_HUMAN

> <UniProt (SwissProt) Primary ID of Target Chain>
Q9UM73

> <UniProt (SwissProt) Secondary ID(s) of Target Chain>
Q4ZFX9,Q53QQ6,Q53RZ4,Q59FI3,Q9Y4K6

> <UniProt (SwissProt) Alternative ID(s) of Target Chain>


> <UniProt (TrEMBL) Submitted Name of Target Chain>


> <UniProt (TrEMBL) Entry Name of Target Chain>


> <UniProt (TrEMBL) Primary ID of Target Chain>


> <UniProt (TrEMBL) Secondary ID(s) of Target Chain>


> <UniProt (TrEMBL) Alternative ID(s) of Target Chain>


$$$$
00085001.cdx

Vconf v2.0 Academic SN VC001-00000579
 44 48  0  0  0  0  0  0  0  0999 V2000
   -4.6440    2.4749    0.0000 N   0  0  0  0  0  0  0  0  0  0  0
   -4.6440    1.6499    0.0000 C   0  0  0  0  0  0  0  0  0  0  0
   -3.9295    1.2375    0.0000 C   0  0  0  0  0  0  0  0  0  0  0
   -3.2151    1.6499    0.0000 N   0  0  0  0  0  0  0  0  0  0  0
   -3.2151    2.4749    0.0000 C   0  0  0  0  0  0  0  0  0  0  0
   -3.9295    2.8874    0.0000 C   0  0  0  0  0  0  0  0  0  0  0
   -5.3584    2.8874    0.0000 C   0  0  0  0  0  0  0  0  0  0  0
   -2.5006    1.2375    0.0000 C   0  0  0  0  0  0  0  0  0  0  0
   -2.5006    0.4125    0.0000 C   0  0  0  0  0  0  0  0  0  0  0
   -1.7862    0.0000    0.0000 C   0  0  0  0  0  0  0  0  0  0  0
   -1.0717    0.4125    0.0000 C   0  0  0  0  0  0  0  0  0  0  0
   -1.0717    1.2375    0.0000 C   0  0  0  0  0  0  0  0  0  0  0
   -1.7862    1.6499    0.0000 C   0  0  0  0  0  0  0  0  0  0  0
   -0.3573    0.0000    0.0000 N   0  0  0  0  0  0  0  0  0  0  0
   -0.3573   -0.8250    0.0000 C   0  0  0  0  0  0  0  0  0  0  0
   -0.3573    1.6499    0.0000 O   0  0  0  0  0  0  0  0  0  0  0
    0.3573    1.2375    0.0000 C   0  0  0  0  0  0  0  0  0  0  0
   -1.0717   -1.2375    0.0000 C   0  0  0  0  0  0  0  0  0  0  0
   -1.0717   -2.0625    0.0000 C   0  0  0  0  0  0  0  0  0  0  0
   -0.3573   -2.4749    0.0000 N   0  0  0  0  0  0  0  0  0  0  0
    0.3573   -2.0625    0.0000 C   0  0  0  0  0  0  0  0  0  0  0
    0.3573   -1.2375    0.0000 N   0  0  0  0  0  0  0  0  0  0  0
   -1.7862   -0.8250    0.0000 Cl  0  0  0  0  0  0  0  0  0  0  0
    1.0717   -2.4749    0.0000 N   0  0  0  0  0  0  0  0  0  0  0
    1.7862   -2.0625    0.0000 C   0  0  0  0  0  0  0  0  0  0  0
    2.5006   -2.4749    0.0000 C   0  0  0  0  0  0  0  0  0  0  0
    3.2151   -2.0625    0.0000 C   0  0  0  0  0  0  0  0  0  0  0
    3.2151   -1.2375    0.0000 C   0  0  0  0  0  0  0  0  0  0  0
    2.5006   -0.8250    0.0000 C   0  0  0  0  0  0  0  0  0  0  0
    1.7862   -1.2375    0.0000 C   0  0  0  0  0  0  0  0  0  0  0
    2.5006   -3.2999    0.0000 O   0  0  0  0  0  0  0  0  0  0  0
    3.2151   -3.7124    0.0000 C   0  0  0  0  0  0  0  0  0  0  0
    3.9295   -0.8250    0.0000 N   0  0  0  0  0  0  0  0  0  0  0
    4.6440   -1.2375    0.0000 C   0  0  0  0  0  0  0  0  0  0  0
    5.3584   -0.8250    0.0000 C   0  0  0  0  0  0  0  0  0  0  0
    5.3584    0.0000    0.0000 N   0  0  0  0  0  0  0  0  0  0  0
    4.6440    0.4125    0.0000 C   0  0  0  0  0  0  0  0  0  0  0
    3.9295    0.0000    0.0000 C   0  0  0  0  0  0  0  0  0  0  0
    6.0728    0.4125    0.0000 C   0  0  0  0  0  0  0  0  0  0  0
    6.7873    0.0000    0.0000 C   0  0  0  0  0  0  0  0  0  0  0
    6.0728    1.2375    0.0000 O   0  0  0  0  0  0  0  0  0  0  0
   -6.0728    2.4749    0.0000 C   0  0  0  0  0  0  0  0  0  0  0
   -5.3584    3.7124    0.0000 O   0  0  0  0  0  0  0  0  0  0  0
   -6.7873    2.8874    0.0000 C   0  0  0  0  0  0  0  0  0  0  0
  1  2  1  0  0  0  0
  2  3  1  0  0  0  0
  3  4  1  0  0  0  0
  4  5  1  0  0  0  0
  5  6  1  0  0  0  0
  6  1  1  0  0  0  0
  1  7  1  0  0  0  0
  4  8  1  0  0  0  0
  8  9  4  0  0  0  0
  9 10  4  0  0  0  0
 10 11  4  0  0  0  0
 11 12  4  0  0  0  0
 12 13  4  0  0  0  0
 13  8  4  0  0  0  0
 11 14  1  0  0  0  0
 14 15  1  0  0  0  0
 12 16  1  0  0  0  0
 16 17  1  0  0  0  0
 15 18  4  0  0  0  0
 18 19  4  0  0  0  0
 19 20  4  0  0  0  0
 20 21  4  0  0  0  0
 21 22  4  0  0  0  0
 22 15  4  0  0  0  0
 18 23  1  0  0  0  0
 21 24  1  0  0  0  0
 24 25  1  0  0  0  0
 25 26  4  0  0  0  0
 26 27  4  0  0  0  0
 27 28  4  0  0  0  0
 28 29  4  0  0  0  0
 29 30  4  0  0  0  0
 30 25  4  0  0  0  0
 26 31  1  0  0  0  0
 31 32  1  0  0  0  0
 28 33  1  0  0  0  0
 33 34  1  0  0  0  0
 34 35  1  0  0  0  0
 35 36  1  0  0  0  0
 36 37  1  0  0  0  0
 37 38  1  0  0  0  0
 38 33  1  0  0  0  0
 36 39  1  0  0  0  0
 39 40  1  0  0  0  0
 39 41  2  0  0  0  0
  7 42  1  0  0  0  0
  7 43  2  0  0  0  0
 42 44  1  0  0  0  0
M  END
> <From>
www.bindingDB.org

> <BindingDB Reactant_set_id>
345696

> <Ligand InChI>
InChI=1S/C31H39ClN8O4/c1-5-29(42)40-16-14-39(15-17-40)22-6-8-25(27(18-22)43-3)34-30-24(32)20-33-31(36-30)35-26-9-7-23(19-28(26)44-4)38-12-10-37(11-13-38)21(2)41/h6-9,18-20H,5,10-17H2,1-4H3,(H2,33,34,35,36)

> <Ligand InChI Key>
YDIPHRDTWAZNQP-UHFFFAOYSA-N

> <BindingDB MonomerID>
193440

> <BindingDB Ligand Name>
US9199944, 22

> <Target Name Assigned by Curator or DataSource>
ALK tyrosine kinase receptor

> <Target Source Organism According to Curator or DataSource>
Homo sapiens

> <Ki (nM)>


> <IC50 (nM)>
 10

> <Kd (nM)>


> <EC50 (nM)>


> <kon (M-1-s-1)>


> <koff (s-1)>


> <pH>


> <Temp C>
25.00

> <Curation/DataSource>
US Patent

> <Article DOI>


> <PMID>


> <PubChem AID>


> <Patent Number>
US9199944

> <Authors>
Lee, K; Kim, HR; Park, CH; Lee, CO; Lee, JK; Jung, HJ; Cho, SY; Chae, CH; Choi, SU; Ha, JD

> <Institution>
KOREA RESEARCH INSTITUTE OF CHEMICAL TECHNOLOGY

> <Link to Ligand in BindingDB>
http://www.bindingdb.org/bind/chemsearch/marvin/MolStructure.jsp?monomerid=193440

> <Link to Ligand-Target Pair in BindingDB>
http://www.bindingdb.org/jsp/dbsearch/PrimarySearch_ki.jsp?energyterm=kJ/mole&tag=pol&polymerid=5809&target=ALK+tyrosine+kinase+receptor&column=ki&startPg=0&Increment=50&submit=Search

> <Link to Ligand-Target Pair in BindingDB>
http://www.bindingdb.org/jsp/dbsearch/PrimarySearch_ki.jsp?energyterm=kJ/mole&tag=r21&monomerid=193440&enzyme=ALK+tyrosine+kinase+receptor&column=ki&startPg=0&Increment=50&submit=Search

> <Ligand HET ID in PDB>


> <PDB ID(s) for Ligand-Target Complex>


> <PubChem CID>
118105668

> <PubChem SID>
317230760

> <ChEBI ID of Ligand>


> <ChEMBL ID of Ligand>


> <DrugBank ID of Ligand>


> <IUPHAR_GRAC ID of Ligand>


> <KEGG ID of Ligand>


> <ZINC ID of Ligand>


> <Number of Protein Chains in Target (>1 implies a multichain complex)>
1

> <BindingDB Target Chain Sequence>
MGAIGLLWLLPLLLSTAAVGSGMGTGQRAGSPAAGPPLQPREPLSYSRLQRKSLAVDFVVPSLFRVYARDLLLPPSSSELKAGRPEARGSLALDCAPLLRLLGPAPGVSWTAGSPAPAEARTLSRVLKGGSVRKLRRAKQLVLELGEEAILEGCVGPPGEAAVGLLQFNLSELFSWWIRQGEGRLRIRLMPEKKASEVGREGRLSAAIRASQPRLLFQIFGTGHSSLESPTNMPSPSPDYFTWNLTWIMKDSFPFLSHRSRYGLECSFDFPCELEYSPPLHDLRNQSWSWRRIPSEEASQMDLLDGPGAERSKEMPRGSFLLLNTSADSKHTILSPWMRSSSEHCTLAVSVHRHLQPSGRYIAQLLPHNEAAREILLMPTPGKHGWTVLQGRIGRPDNPFRVALEYISSGNRSLSAVDFFALKNCSEGTSPGSKMALQSSFTCWNGTVLQLGQACDFHQDCAQGEDESQMCRKLPVGFYCNFEDGFCGWTQGTLSPHTPQWQVRTLKDARFQDHQDHALLLSTTDVPASESATVTSATFPAPIKSSPCELRMSWLIRGVLRGNVSLVLVENKTGKEQGRMVWHVAAYEGLSLWQWMVLPLLDVSDRFWLQMVAWWGQGSRAIVAFDNISISLDCYLTISGEDKILQNTAPKSRNLFERNPNKELKPGENSPRQTPIFDPTVHWLFTTCGASGPHGPTQAQCNNAYQNSNLSVEVGSEGPLKGIQIWKVPATDTYSISGYGAAGGKGGKNTMMRSHGVSVLGIFNLEKDDMLYILVGQQGEDACPSTNQLIQKVCIGENNVIEEEIRVNRSVHEWAGGGGGGGGATYVFKMKDGVPVPLIIAAGGGGRAYGAKTDTFHPERLENNSSVLGLNGNSGAAGGGGGWNDNTSLLWAGKSLQEGATGGHSCPQAMKKWGWETRGGFGGGGGGCSSGGGGGGYIGGNAASNNDPEMDGEDGVSFISPLGILYTPALKVMEGHGEVNIKHYLNCSHCEVDECHMDPESHKVICFCDHGTVLAEDGVSCIVSPTPEPHLPLSLILSVVTSALVAALVLAFSGIMIVYRRKHQELQAMQMELQSPEYKLSKLRTSTIMTDYNPNYCFAGKTSSISDLKEVPRKNITLIRGLGHGAFGEVYEGQVSGMPNDPSPLQVAVKTLPEVCSEQDELDFLMEALIISKFNHQNIVRCIGVSLQSLPRFILLELMAGGDLKSFLRETRPRPSQPSSLAMLDLLHVARDIACGCQYLEENHFIHRDIAARNCLLTCPGPGRVAKIGDFGMARDIYRASYYRKGGCAMLPVKWMPPEAFMEGIFTSKTDTWSFGVLLWEIFSLGYMPYPSKSNQEVLEFVTSGGRMDPPKNCPGPVYRIMTQCWQHQPEDRPNFAIILERIEYCTQDPDVINTALPIEYGPLVEEEEKVPVRPKDPEGVPPLLVSQQAKREEERSPAAPPPLPTTSSGKAAKKPTAAEISVRVPRGPAVEGGHVNMAFSQSNPPSELHKVHGSRNKPTSLWNPTYGSWFTEKPTKKNNPIAKKEPHDRGNLGLEGSCTVPPNVATGRLPGASLLLEPSSLTANMKEVPLFRLRHFPCGNVNYGYQQQGLPLEAATAPGAGHYEDTILKSKNSMNQPGP

> <PDB ID(s) of Target Chain>
2XB7,2XBA,3AOX,5FTO,5FTQ,6E0R,6EBW,6EDL,6MX8

> <UniProt (SwissProt) Recommended Name of Target Chain>
ALK tyrosine kinase receptor

> <UniProt (SwissProt) Entry Name of Target Chain>
ALK_HUMAN

> <UniProt (SwissProt) Primary ID of Target Chain>
Q9UM73

> <UniProt (SwissProt) Secondary ID(s) of Target Chain>
Q4ZFX9,Q53QQ6,Q53RZ4,Q59FI3,Q9Y4K6

> <UniProt (SwissProt) Alternative ID(s) of Target Chain>


> <UniProt (TrEMBL) Submitted Name of Target Chain>


> <UniProt (TrEMBL) Entry Name of Target Chain>


> <UniProt (TrEMBL) Primary ID of Target Chain>


> <UniProt (TrEMBL) Secondary ID(s) of Target Chain>


> <UniProt (TrEMBL) Alternative ID(s) of Target Chain>


$$$$
00086001.cdx

Vconf v2.0 Academic SN VC001-00000579
 46 50  0  0  0  0  0  0  0  0999 V2000
   -4.6441    2.4750    0.0000 N   0  0  0  0  0  0  0  0  0  0  0
   -4.6441    1.6500    0.0000 C   0  0  0  0  0  0  0  0  0  0  0
   -3.9297    1.2376    0.0000 C   0  0  0  0  0  0  0  0  0  0  0
   -3.2152    1.6500    0.0000 N   0  0  0  0  0  0  0  0  0  0  0
   -3.2152    2.4750    0.0000 C   0  0  0  0  0  0  0  0  0  0  0
   -3.9297    2.8876    0.0000 C   0  0  0  0  0  0  0  0  0  0  0
   -5.3586    2.8876    0.0000 C   0  0  0  0  0  0  0  0  0  0  0
   -2.5007    1.2376    0.0000 C   0  0  0  0  0  0  0  0  0  0  0
   -2.5007    0.4126    0.0000 C   0  0  0  0  0  0  0  0  0  0  0
   -1.7862    0.0000    0.0000 C   0  0  0  0  0  0  0  0  0  0  0
   -1.0718    0.4126    0.0000 C   0  0  0  0  0  0  0  0  0  0  0
   -1.0718    1.2376    0.0000 C   0  0  0  0  0  0  0  0  0  0  0
   -1.7862    1.6500    0.0000 C   0  0  0  0  0  0  0  0  0  0  0
   -0.3573    0.0000    0.0000 N   0  0  0  0  0  0  0  0  0  0  0
   -0.3573   -0.8250    0.0000 C   0  0  0  0  0  0  0  0  0  0  0
   -0.3573    1.6500    0.0000 O   0  0  0  0  0  0  0  0  0  0  0
    0.3573    1.2376    0.0000 C   0  0  0  0  0  0  0  0  0  0  0
   -1.0718   -1.2376    0.0000 C   0  0  0  0  0  0  0  0  0  0  0
   -1.0718   -2.0626    0.0000 C   0  0  0  0  0  0  0  0  0  0  0
   -0.3573   -2.4750    0.0000 N   0  0  0  0  0  0  0  0  0  0  0
    0.3573   -2.0626    0.0000 C   0  0  0  0  0  0  0  0  0  0  0
    0.3573   -1.2376    0.0000 N   0  0  0  0  0  0  0  0  0  0  0
   -1.7862   -0.8250    0.0000 Cl  0  0  0  0  0  0  0  0  0  0  0
    1.0718   -2.4750    0.0000 N   0  0  0  0  0  0  0  0  0  0  0
    1.7862   -2.0626    0.0000 C   0  0  0  0  0  0  0  0  0  0  0
    2.5007   -2.4750    0.0000 C   0  0  0  0  0  0  0  0  0  0  0
    3.2152   -2.0626    0.0000 C   0  0  0  0  0  0  0  0  0  0  0
    3.2152   -1.2376    0.0000 C   0  0  0  0  0  0  0  0  0  0  0
    2.5007   -0.8250    0.0000 C   0  0  0  0  0  0  0  0  0  0  0
    1.7862   -1.2376    0.0000 C   0  0  0  0  0  0  0  0  0  0  0
    2.5007   -3.3000    0.0000 O   0  0  0  0  0  0  0  0  0  0  0
    3.2152   -3.7126    0.0000 C   0  0  0  0  0  0  0  0  0  0  0
    3.9297   -0.8250    0.0000 N   0  0  0  0  0  0  0  0  0  0  0
    4.6441   -1.2376    0.0000 C   0  0  0  0  0  0  0  0  0  0  0
    5.3586   -0.8250    0.0000 C   0  0  0  0  0  0  0  0  0  0  0
    5.3586    0.0000    0.0000 N   0  0  0  0  0  0  0  0  0  0  0
    4.6441    0.4126    0.0000 C   0  0  0  0  0  0  0  0  0  0  0
    3.9297    0.0000    0.0000 C   0  0  0  0  0  0  0  0  0  0  0
    6.0731    0.4126    0.0000 C   0  0  0  0  0  0  0  0  0  0  0
    6.7876    0.0000    0.0000 C   0  0  0  0  0  0  0  0  0  0  0
    6.0731    1.2376    0.0000 O   0  0  0  0  0  0  0  0  0  0  0
   -6.0731    2.4750    0.0000 C   0  0  0  0  0  0  0  0  0  0  0
   -5.3586    3.7126    0.0000 O   0  0  0  0  0  0  0  0  0  0  0
   -6.7876    2.8876    0.0000 C   0  0  0  0  0  0  0  0  0  0  0
   -6.0731    3.3000    0.0000 C   0  0  0  0  0  0  0  0  0  0  0
   -6.0731    1.6500    0.0000 C   0  0  0  0  0  0  0  0  0  0  0
  1  2  1  0  0  0  0
  2  3  1  0  0  0  0
  3  4  1  0  0  0  0
  4  5  1  0  0  0  0
  5  6  1  0  0  0  0
  6  1  1  0  0  0  0
  1  7  1  0  0  0  0
  4  8  1  0  0  0  0
  8  9  4  0  0  0  0
  9 10  4  0  0  0  0
 10 11  4  0  0  0  0
 11 12  4  0  0  0  0
 12 13  4  0  0  0  0
 13  8  4  0  0  0  0
 11 14  1  0  0  0  0
 14 15  1  0  0  0  0
 12 16  1  0  0  0  0
 16 17  1  0  0  0  0
 15 18  4  0  0  0  0
 18 19  4  0  0  0  0
 19 20  4  0  0  0  0
 20 21  4  0  0  0  0
 21 22  4  0  0  0  0
 22 15  4  0  0  0  0
 18 23  1  0  0  0  0
 21 24  1  0  0  0  0
 24 25  1  0  0  0  0
 25 26  4  0  0  0  0
 26 27  4  0  0  0  0
 27 28  4  0  0  0  0
 28 29  4  0  0  0  0
 29 30  4  0  0  0  0
 30 25  4  0  0  0  0
 26 31  1  0  0  0  0
 31 32  1  0  0  0  0
 28 33  1  0  0  0  0
 33 34  1  0  0  0  0
 34 35  1  0  0  0  0
 35 36  1  0  0  0  0
 36 37  1  0  0  0  0
 37 38  1  0  0  0  0
 38 33  1  0  0  0  0
 36 39  1  0  0  0  0
 39 40  1  0  0  0  0
 39 41  2  0  0  0  0
  7 42  1  0  0  0  0
  7 43  2  0  0  0  0
 42 44  1  0  0  0  0
 42 45  1  0  0  0  0
 42 46  1  0  0  0  0
M  END
> <From>
www.bindingDB.org

> <BindingDB Reactant_set_id>
345697

> <Ligand InChI>
InChI=1S/C33H43ClN8O4/c1-22(43)39-11-13-40(14-12-39)24-8-10-27(29(20-24)46-6)37-32-35-21-25(34)30(38-32)36-26-9-7-23(19-28(26)45-5)41-15-17-42(18-16-41)31(44)33(2,3)4/h7-10,19-21H,11-18H2,1-6H3,(H2,35,36,37,38)

> <Ligand InChI Key>
CLAUAWFWTWGHHE-UHFFFAOYSA-N

> <BindingDB MonomerID>
193441

> <BindingDB Ligand Name>
US9199944, 23

> <Target Name Assigned by Curator or DataSource>
ALK tyrosine kinase receptor

> <Target Source Organism According to Curator or DataSource>
Homo sapiens

> <Ki (nM)>


> <IC50 (nM)>
 23

> <Kd (nM)>


> <EC50 (nM)>


> <kon (M-1-s-1)>


> <koff (s-1)>


> <pH>


> <Temp C>
25.00

> <Curation/DataSource>
US Patent

> <Article DOI>


> <PMID>


> <PubChem AID>


> <Patent Number>
US9199944

> <Authors>
Lee, K; Kim, HR; Park, CH; Lee, CO; Lee, JK; Jung, HJ; Cho, SY; Chae, CH; Choi, SU; Ha, JD

> <Institution>
KOREA RESEARCH INSTITUTE OF CHEMICAL TECHNOLOGY

> <Link to Ligand in BindingDB>
http://www.bindingdb.org/bind/chemsearch/marvin/MolStructure.jsp?monomerid=193441

> <Link to Ligand-Target Pair in BindingDB>
http://www.bindingdb.org/jsp/dbsearch/PrimarySearch_ki.jsp?energyterm=kJ/mole&tag=pol&polymerid=5809&target=ALK+tyrosine+kinase+receptor&column=ki&startPg=0&Increment=50&submit=Search

> <Link to Ligand-Target Pair in BindingDB>
http://www.bindingdb.org/jsp/dbsearch/PrimarySearch_ki.jsp?energyterm=kJ/mole&tag=r21&monomerid=193441&enzyme=ALK+tyrosine+kinase+receptor&column=ki&startPg=0&Increment=50&submit=Search

> <Ligand HET ID in PDB>


> <PDB ID(s) for Ligand-Target Complex>


> <PubChem CID>
118105762

> <PubChem SID>
317230761

> <ChEBI ID of Ligand>


> <ChEMBL ID of Ligand>


> <DrugBank ID of Ligand>


> <IUPHAR_GRAC ID of Ligand>


> <KEGG ID of Ligand>


> <ZINC ID of Ligand>


> <Number of Protein Chains in Target (>1 implies a multichain complex)>
1

> <BindingDB Target Chain Sequence>
MGAIGLLWLLPLLLSTAAVGSGMGTGQRAGSPAAGPPLQPREPLSYSRLQRKSLAVDFVVPSLFRVYARDLLLPPSSSELKAGRPEARGSLALDCAPLLRLLGPAPGVSWTAGSPAPAEARTLSRVLKGGSVRKLRRAKQLVLELGEEAILEGCVGPPGEAAVGLLQFNLSELFSWWIRQGEGRLRIRLMPEKKASEVGREGRLSAAIRASQPRLLFQIFGTGHSSLESPTNMPSPSPDYFTWNLTWIMKDSFPFLSHRSRYGLECSFDFPCELEYSPPLHDLRNQSWSWRRIPSEEASQMDLLDGPGAERSKEMPRGSFLLLNTSADSKHTILSPWMRSSSEHCTLAVSVHRHLQPSGRYIAQLLPHNEAAREILLMPTPGKHGWTVLQGRIGRPDNPFRVALEYISSGNRSLSAVDFFALKNCSEGTSPGSKMALQSSFTCWNGTVLQLGQACDFHQDCAQGEDESQMCRKLPVGFYCNFEDGFCGWTQGTLSPHTPQWQVRTLKDARFQDHQDHALLLSTTDVPASESATVTSATFPAPIKSSPCELRMSWLIRGVLRGNVSLVLVENKTGKEQGRMVWHVAAYEGLSLWQWMVLPLLDVSDRFWLQMVAWWGQGSRAIVAFDNISISLDCYLTISGEDKILQNTAPKSRNLFERNPNKELKPGENSPRQTPIFDPTVHWLFTTCGASGPHGPTQAQCNNAYQNSNLSVEVGSEGPLKGIQIWKVPATDTYSISGYGAAGGKGGKNTMMRSHGVSVLGIFNLEKDDMLYILVGQQGEDACPSTNQLIQKVCIGENNVIEEEIRVNRSVHEWAGGGGGGGGATYVFKMKDGVPVPLIIAAGGGGRAYGAKTDTFHPERLENNSSVLGLNGNSGAAGGGGGWNDNTSLLWAGKSLQEGATGGHSCPQAMKKWGWETRGGFGGGGGGCSSGGGGGGYIGGNAASNNDPEMDGEDGVSFISPLGILYTPALKVMEGHGEVNIKHYLNCSHCEVDECHMDPESHKVICFCDHGTVLAEDGVSCIVSPTPEPHLPLSLILSVVTSALVAALVLAFSGIMIVYRRKHQELQAMQMELQSPEYKLSKLRTSTIMTDYNPNYCFAGKTSSISDLKEVPRKNITLIRGLGHGAFGEVYEGQVSGMPNDPSPLQVAVKTLPEVCSEQDELDFLMEALIISKFNHQNIVRCIGVSLQSLPRFILLELMAGGDLKSFLRETRPRPSQPSSLAMLDLLHVARDIACGCQYLEENHFIHRDIAARNCLLTCPGPGRVAKIGDFGMARDIYRASYYRKGGCAMLPVKWMPPEAFMEGIFTSKTDTWSFGVLLWEIFSLGYMPYPSKSNQEVLEFVTSGGRMDPPKNCPGPVYRIMTQCWQHQPEDRPNFAIILERIEYCTQDPDVINTALPIEYGPLVEEEEKVPVRPKDPEGVPPLLVSQQAKREEERSPAAPPPLPTTSSGKAAKKPTAAEISVRVPRGPAVEGGHVNMAFSQSNPPSELHKVHGSRNKPTSLWNPTYGSWFTEKPTKKNNPIAKKEPHDRGNLGLEGSCTVPPNVATGRLPGASLLLEPSSLTANMKEVPLFRLRHFPCGNVNYGYQQQGLPLEAATAPGAGHYEDTILKSKNSMNQPGP

> <PDB ID(s) of Target Chain>
2XB7,2XBA,3AOX,5FTO,5FTQ,6E0R,6EBW,6EDL,6MX8

> <UniProt (SwissProt) Recommended Name of Target Chain>
ALK tyrosine kinase receptor

> <UniProt (SwissProt) Entry Name of Target Chain>
ALK_HUMAN

> <UniProt (SwissProt) Primary ID of Target Chain>
Q9UM73

> <UniProt (SwissProt) Secondary ID(s) of Target Chain>
Q4ZFX9,Q53QQ6,Q53RZ4,Q59FI3,Q9Y4K6

> <UniProt (SwissProt) Alternative ID(s) of Target Chain>


> <UniProt (TrEMBL) Submitted Name of Target Chain>


> <UniProt (TrEMBL) Entry Name of Target Chain>


> <UniProt (TrEMBL) Primary ID of Target Chain>


> <UniProt (TrEMBL) Secondary ID(s) of Target Chain>


> <UniProt (TrEMBL) Alternative ID(s) of Target Chain>


$$$$
00096001.cdx

Vconf v2.0 Academic SN VC001-00000579
 42 46  0  0  0  0  0  0  0  0999 V2000
   -5.7158    2.8875    0.0000 N   0  0  0  0  0  0  0  0  0  0  0
   -5.7158    2.0626    0.0000 C   0  0  0  0  0  0  0  0  0  0  0
   -5.0013    1.6499    0.0000 C   0  0  0  0  0  0  0  0  0  0  0
   -4.2869    2.0626    0.0000 N   0  0  0  0  0  0  0  0  0  0  0
   -4.2869    2.8875    0.0000 C   0  0  0  0  0  0  0  0  0  0  0
   -5.0013    3.3000    0.0000 C   0  0  0  0  0  0  0  0  0  0  0
   -3.5725    1.6499    0.0000 C   0  0  0  0  0  0  0  0  0  0  0
   -3.5725    0.8251    0.0000 C   0  0  0  0  0  0  0  0  0  0  0
   -2.8578    0.4125    0.0000 C   0  0  0  0  0  0  0  0  0  0  0
   -2.1435    0.8251    0.0000 C   0  0  0  0  0  0  0  0  0  0  0
   -2.1435    1.6499    0.0000 C   0  0  0  0  0  0  0  0  0  0  0
   -2.8578    2.0626    0.0000 C   0  0  0  0  0  0  0  0  0  0  0
   -1.4290    2.0625    0.0000 O   0  0  0  0  0  0  0  0  0  0  0
   -1.4290    0.4125    0.0000 N   0  0  0  0  0  0  0  0  0  0  0
   -1.4290   -0.4125    0.0000 C   0  0  0  0  0  0  0  0  0  0  0
   -2.1435   -0.8251    0.0000 C   0  0  0  0  0  0  0  0  0  0  0
   -2.1435   -1.6499    0.0000 C   0  0  0  0  0  0  0  0  0  0  0
   -1.4290   -2.0626    0.0000 N   0  0  0  0  0  0  0  0  0  0  0
   -0.7145   -1.6499    0.0000 C   0  0  0  0  0  0  0  0  0  0  0
   -0.7145   -0.8251    0.0000 N   0  0  0  0  0  0  0  0  0  0  0
   -2.8578   -0.4125    0.0000 Cl  0  0  0  0  0  0  0  0  0  0  0
    0.0000   -2.0626    0.0000 N   0  0  0  0  0  0  0  0  0  0  0
    0.7145   -1.6499    0.0000 C   0  0  0  0  0  0  0  0  0  0  0
    1.4290   -2.0626    0.0000 C   0  0  0  0  0  0  0  0  0  0  0
    2.1435   -1.6499    0.0000 C   0  0  0  0  0  0  0  0  0  0  0
    2.1435   -0.8251    0.0000 C   0  0  0  0  0  0  0  0  0  0  0
    1.4290   -0.4125    0.0000 C   0  0  0  0  0  0  0  0  0  0  0
    0.7145   -0.8251    0.0000 C   0  0  0  0  0  0  0  0  0  0  0
    1.4290   -2.8875    0.0000 O   0  0  0  0  0  0  0  0  0  0  0
    2.1435   -3.3000    0.0000 C   0  0  0  0  0  0  0  0  0  0  0
    2.8578   -0.4125    0.0000 N   0  0  0  0  0  0  0  0  0  0  0
    3.5725   -0.8251    0.0000 C   0  0  0  0  0  0  0  0  0  0  0
    4.2869   -0.4125    0.0000 C   0  0  0  0  0  0  0  0  0  0  0
    4.2869    0.4125    0.0000 N   0  0  0  0  0  0  0  0  0  0  0
    3.5725    0.8251    0.0000 C   0  0  0  0  0  0  0  0  0  0  0
    2.8578    0.4125    0.0000 C   0  0  0  0  0  0  0  0  0  0  0
    5.0013    0.8251    0.0000 C   0  0  0  0  0  0  0  0  0  0  0
    5.7158    0.4125    0.0000 C   0  0  0  0  0  0  0  0  0  0  0
    5.0013    1.6499    0.0000 O   0  0  0  0  0  0  0  0  0  0  0
   -1.4290    2.8874    0.0000 C   0  0  0  0  0  0  0  0  0  0  0
   -2.1434    3.2999    0.0000 F   0  0  0  0  0  0  0  0  0  0  0
   -0.7145    3.2998    0.0000 F   0  0  0  0  0  0  0  0  0  0  0
  1  2  1  0  0  0  0
  2  3  1  0  0  0  0
  3  4  1  0  0  0  0
  4  5  1  0  0  0  0
  5  6  1  0  0  0  0
  6  1  1  0  0  0  0
  4  7  1  0  0  0  0
  7  8  4  0  0  0  0
  8  9  4  0  0  0  0
  9 10  4  0  0  0  0
 10 11  4  0  0  0  0
 11 12  4  0  0  0  0
 12  7  4  0  0  0  0
 11 13  1  0  0  0  0
 10 14  1  0  0  0  0
 14 15  1  0  0  0  0
 15 16  4  0  0  0  0
 16 17  4  0  0  0  0
 17 18  4  0  0  0  0
 18 19  4  0  0  0  0
 19 20  4  0  0  0  0
 20 15  4  0  0  0  0
 16 21  1  0  0  0  0
 19 22  1  0  0  0  0
 22 23  1  0  0  0  0
 23 24  4  0  0  0  0
 24 25  4  0  0  0  0
 25 26  4  0  0  0  0
 26 27  4  0  0  0  0
 27 28  4  0  0  0  0
 28 23  4  0  0  0  0
 24 29  1  0  0  0  0
 29 30  1  0  0  0  0
 26 31  1  0  0  0  0
 31 32  1  0  0  0  0
 32 33  1  0  0  0  0
 33 34  1  0  0  0  0
 34 35  1  0  0  0  0
 35 36  1  0  0  0  0
 36 31  1  0  0  0  0
 34 37  1  0  0  0  0
 37 38  1  0  0  0  0
 37 39  2  0  0  0  0
 13 40  1  0  0  0  0
 40 41  1  0  0  0  0
 40 42  1  0  0  0  0
M  END
> <From>
www.bindingDB.org

> <BindingDB Reactant_set_id>
345707

> <Ligand InChI>
InChI=1S/C28H33ClF2N8O3/c1-18(40)37-11-13-39(14-12-37)19-3-5-22(24(15-19)41-2)35-28-33-17-21(29)26(36-28)34-23-6-4-20(16-25(23)42-27(30)31)38-9-7-32-8-10-38/h3-6,15-17,27,32H,7-14H2,1-2H3,(H2,33,34,35,36)

> <Ligand InChI Key>
AMKFIUOJOFCKGP-UHFFFAOYSA-N

> <BindingDB MonomerID>
193451

> <BindingDB Ligand Name>
US9199944, 33

> <Target Name Assigned by Curator or DataSource>
ALK tyrosine kinase receptor

> <Target Source Organism According to Curator or DataSource>
Homo sapiens

> <Ki (nM)>


> <IC50 (nM)>
 5

> <Kd (nM)>


> <EC50 (nM)>


> <kon (M-1-s-1)>


> <koff (s-1)>


> <pH>


> <Temp C>
25.00

> <Curation/DataSource>
US Patent

> <Article DOI>


> <PMID>


> <PubChem AID>


> <Patent Number>
US9199944

> <Authors>
Lee, K; Kim, HR; Park, CH; Lee, CO; Lee, JK; Jung, HJ; Cho, SY; Chae, CH; Choi, SU; Ha, JD

> <Institution>
KOREA RESEARCH INSTITUTE OF CHEMICAL TECHNOLOGY

> <Link to Ligand in BindingDB>
http://www.bindingdb.org/bind/chemsearch/marvin/MolStructure.jsp?monomerid=193451

> <Link to Ligand-Target Pair in BindingDB>
http://www.bindingdb.org/jsp/dbsearch/PrimarySearch_ki.jsp?energyterm=kJ/mole&tag=pol&polymerid=5809&target=ALK+tyrosine+kinase+receptor&column=ki&startPg=0&Increment=50&submit=Search

> <Link to Ligand-Target Pair in BindingDB>
http://www.bindingdb.org/jsp/dbsearch/PrimarySearch_ki.jsp?energyterm=kJ/mole&tag=r21&monomerid=193451&enzyme=ALK+tyrosine+kinase+receptor&column=ki&startPg=0&Increment=50&submit=Search

> <Ligand HET ID in PDB>


> <PDB ID(s) for Ligand-Target Complex>


> <PubChem CID>
118105663

> <PubChem SID>
317230771

> <ChEBI ID of Ligand>


> <ChEMBL ID of Ligand>


> <DrugBank ID of Ligand>


> <IUPHAR_GRAC ID of Ligand>


> <KEGG ID of Ligand>


> <ZINC ID of Ligand>


> <Number of Protein Chains in Target (>1 implies a multichain complex)>
1

> <BindingDB Target Chain Sequence>
MGAIGLLWLLPLLLSTAAVGSGMGTGQRAGSPAAGPPLQPREPLSYSRLQRKSLAVDFVVPSLFRVYARDLLLPPSSSELKAGRPEARGSLALDCAPLLRLLGPAPGVSWTAGSPAPAEARTLSRVLKGGSVRKLRRAKQLVLELGEEAILEGCVGPPGEAAVGLLQFNLSELFSWWIRQGEGRLRIRLMPEKKASEVGREGRLSAAIRASQPRLLFQIFGTGHSSLESPTNMPSPSPDYFTWNLTWIMKDSFPFLSHRSRYGLECSFDFPCELEYSPPLHDLRNQSWSWRRIPSEEASQMDLLDGPGAERSKEMPRGSFLLLNTSADSKHTILSPWMRSSSEHCTLAVSVHRHLQPSGRYIAQLLPHNEAAREILLMPTPGKHGWTVLQGRIGRPDNPFRVALEYISSGNRSLSAVDFFALKNCSEGTSPGSKMALQSSFTCWNGTVLQLGQACDFHQDCAQGEDESQMCRKLPVGFYCNFEDGFCGWTQGTLSPHTPQWQVRTLKDARFQDHQDHALLLSTTDVPASESATVTSATFPAPIKSSPCELRMSWLIRGVLRGNVSLVLVENKTGKEQGRMVWHVAAYEGLSLWQWMVLPLLDVSDRFWLQMVAWWGQGSRAIVAFDNISISLDCYLTISGEDKILQNTAPKSRNLFERNPNKELKPGENSPRQTPIFDPTVHWLFTTCGASGPHGPTQAQCNNAYQNSNLSVEVGSEGPLKGIQIWKVPATDTYSISGYGAAGGKGGKNTMMRSHGVSVLGIFNLEKDDMLYILVGQQGEDACPSTNQLIQKVCIGENNVIEEEIRVNRSVHEWAGGGGGGGGATYVFKMKDGVPVPLIIAAGGGGRAYGAKTDTFHPERLENNSSVLGLNGNSGAAGGGGGWNDNTSLLWAGKSLQEGATGGHSCPQAMKKWGWETRGGFGGGGGGCSSGGGGGGYIGGNAASNNDPEMDGEDGVSFISPLGILYTPALKVMEGHGEVNIKHYLNCSHCEVDECHMDPESHKVICFCDHGTVLAEDGVSCIVSPTPEPHLPLSLILSVVTSALVAALVLAFSGIMIVYRRKHQELQAMQMELQSPEYKLSKLRTSTIMTDYNPNYCFAGKTSSISDLKEVPRKNITLIRGLGHGAFGEVYEGQVSGMPNDPSPLQVAVKTLPEVCSEQDELDFLMEALIISKFNHQNIVRCIGVSLQSLPRFILLELMAGGDLKSFLRETRPRPSQPSSLAMLDLLHVARDIACGCQYLEENHFIHRDIAARNCLLTCPGPGRVAKIGDFGMARDIYRASYYRKGGCAMLPVKWMPPEAFMEGIFTSKTDTWSFGVLLWEIFSLGYMPYPSKSNQEVLEFVTSGGRMDPPKNCPGPVYRIMTQCWQHQPEDRPNFAIILERIEYCTQDPDVINTALPIEYGPLVEEEEKVPVRPKDPEGVPPLLVSQQAKREEERSPAAPPPLPTTSSGKAAKKPTAAEISVRVPRGPAVEGGHVNMAFSQSNPPSELHKVHGSRNKPTSLWNPTYGSWFTEKPTKKNNPIAKKEPHDRGNLGLEGSCTVPPNVATGRLPGASLLLEPSSLTANMKEVPLFRLRHFPCGNVNYGYQQQGLPLEAATAPGAGHYEDTILKSKNSMNQPGP

> <PDB ID(s) of Target Chain>
2XB7,2XBA,3AOX,5FTO,5FTQ,6E0R,6EBW,6EDL,6MX8

> <UniProt (SwissProt) Recommended Name of Target Chain>
ALK tyrosine kinase receptor

> <UniProt (SwissProt) Entry Name of Target Chain>
ALK_HUMAN

> <UniProt (SwissProt) Primary ID of Target Chain>
Q9UM73

> <UniProt (SwissProt) Secondary ID(s) of Target Chain>
Q4ZFX9,Q53QQ6,Q53RZ4,Q59FI3,Q9Y4K6

> <UniProt (SwissProt) Alternative ID(s) of Target Chain>


> <UniProt (TrEMBL) Submitted Name of Target Chain>


> <UniProt (TrEMBL) Entry Name of Target Chain>


> <UniProt (TrEMBL) Primary ID of Target Chain>


> <UniProt (TrEMBL) Secondary ID(s) of Target Chain>


> <UniProt (TrEMBL) Alternative ID(s) of Target Chain>


$$$$
00098001.cdx

Vconf v2.0 Academic SN VC001-00000579
 45 49  0  0  0  0  0  0  0  0999 V2000
   -5.0013    2.4750    0.0000 N   0  0  0  0  0  0  0  0  0  0  0
   -5.0013    1.6500    0.0000 C   0  0  0  0  0  0  0  0  0  0  0
   -4.2868    1.2375    0.0000 C   0  0  0  0  0  0  0  0  0  0  0
   -3.5724    1.6500    0.0000 N   0  0  0  0  0  0  0  0  0  0  0
   -3.5724    2.4750    0.0000 C   0  0  0  0  0  0  0  0  0  0  0
   -4.2868    2.8875    0.0000 C   0  0  0  0  0  0  0  0  0  0  0
   -2.8579    1.2375    0.0000 C   0  0  0  0  0  0  0  0  0  0  0
   -2.8579    0.4124    0.0000 C   0  0  0  0  0  0  0  0  0  0  0
   -2.1434    0.0000    0.0000 C   0  0  0  0  0  0  0  0  0  0  0
   -1.4290    0.4124    0.0000 C   0  0  0  0  0  0  0  0  0  0  0
   -1.4290    1.2375    0.0000 C   0  0  0  0  0  0  0  0  0  0  0
   -2.1434    1.6500    0.0000 C   0  0  0  0  0  0  0  0  0  0  0
   -0.7145    1.6499    0.0000 O   0  0  0  0  0  0  0  0  0  0  0
   -0.7144    0.0000    0.0000 N   0  0  0  0  0  0  0  0  0  0  0
   -0.7144   -0.8250    0.0000 C   0  0  0  0  0  0  0  0  0  0  0
   -1.4290   -1.2375    0.0000 C   0  0  0  0  0  0  0  0  0  0  0
   -1.4290   -2.0625    0.0000 C   0  0  0  0  0  0  0  0  0  0  0
   -0.7144   -2.4750    0.0000 N   0  0  0  0  0  0  0  0  0  0  0
    0.0000   -2.0625    0.0000 C   0  0  0  0  0  0  0  0  0  0  0
    0.0000   -1.2375    0.0000 N   0  0  0  0  0  0  0  0  0  0  0
   -2.1434   -0.8250    0.0000 Cl  0  0  0  0  0  0  0  0  0  0  0
    0.7144   -2.4750    0.0000 N   0  0  0  0  0  0  0  0  0  0  0
    1.4290   -2.0625    0.0000 C   0  0  0  0  0  0  0  0  0  0  0
    2.1434   -2.4750    0.0000 C   0  0  0  0  0  0  0  0  0  0  0
    2.8579   -2.0625    0.0000 C   0  0  0  0  0  0  0  0  0  0  0
    2.8579   -1.2375    0.0000 C   0  0  0  0  0  0  0  0  0  0  0
    2.1434   -0.8250    0.0000 C   0  0  0  0  0  0  0  0  0  0  0
    1.4290   -1.2375    0.0000 C   0  0  0  0  0  0  0  0  0  0  0
    2.1434   -3.3000    0.0000 O   0  0  0  0  0  0  0  0  0  0  0
    2.8579   -3.7125    0.0000 C   0  0  0  0  0  0  0  0  0  0  0
    3.5724   -0.8250    0.0000 N   0  0  0  0  0  0  0  0  0  0  0
    4.2868   -1.2375    0.0000 C   0  0  0  0  0  0  0  0  0  0  0
    5.0013   -0.8250    0.0000 C   0  0  0  0  0  0  0  0  0  0  0
    5.0013    0.0000    0.0000 N   0  0  0  0  0  0  0  0  0  0  0
    4.2868    0.4124    0.0000 C   0  0  0  0  0  0  0  0  0  0  0
    3.5724    0.0000    0.0000 C   0  0  0  0  0  0  0  0  0  0  0
    5.7158    0.4124    0.0000 C   0  0  0  0  0  0  0  0  0  0  0
    6.4303    0.0000    0.0000 C   0  0  0  0  0  0  0  0  0  0  0
    5.7158    1.2375    0.0000 O   0  0  0  0  0  0  0  0  0  0  0
   -5.7158    2.8875    0.0000 C   0  0  0  0  0  0  0  0  0  0  0
   -6.4303    2.4750    0.0000 C   0  0  0  0  0  0  0  0  0  0  0
   -5.7158    3.7125    0.0000 O   0  0  0  0  0  0  0  0  0  0  0
   -0.7145    2.4749    0.0000 C   0  0  0  0  0  0  0  0  0  0  0
   -1.4289    2.8875    0.0000 F   0  0  0  0  0  0  0  0  0  0  0
    0.0000    2.8874    0.0000 F   0  0  0  0  0  0  0  0  0  0  0
  1  2  1  0  0  0  0
  2  3  1  0  0  0  0
  3  4  1  0  0  0  0
  4  5  1  0  0  0  0
  5  6  1  0  0  0  0
  6  1  1  0  0  0  0
  4  7  1  0  0  0  0
  7  8  4  0  0  0  0
  8  9  4  0  0  0  0
  9 10  4  0  0  0  0
 10 11  4  0  0  0  0
 11 12  4  0  0  0  0
 12  7  4  0  0  0  0
 11 13  1  0  0  0  0
 10 14  1  0  0  0  0
 14 15  1  0  0  0  0
 15 16  4  0  0  0  0
 16 17  4  0  0  0  0
 17 18  4  0  0  0  0
 18 19  4  0  0  0  0
 19 20  4  0  0  0  0
 20 15  4  0  0  0  0
 16 21  1  0  0  0  0
 19 22  1  0  0  0  0
 22 23  1  0  0  0  0
 23 24  4  0  0  0  0
 24 25  4  0  0  0  0
 25 26  4  0  0  0  0
 26 27  4  0  0  0  0
 27 28  4  0  0  0  0
 28 23  4  0  0  0  0
 24 29  1  0  0  0  0
 29 30  1  0  0  0  0
 26 31  1  0  0  0  0
 31 32  1  0  0  0  0
 32 33  1  0  0  0  0
 33 34  1  0  0  0  0
 34 35  1  0  0  0  0
 35 36  1  0  0  0  0
 36 31  1  0  0  0  0
 34 37  1  0  0  0  0
 37 38  1  0  0  0  0
 37 39  2  0  0  0  0
  1 40  1  0  0  0  0
 40 41  1  0  0  0  0
 40 42  2  0  0  0  0
 13 43  1  0  0  0  0
 43 44  1  0  0  0  0
 43 45  1  0  0  0  0
M  END
> <From>
www.bindingDB.org

> <BindingDB Reactant_set_id>
345709

> <Ligand InChI>
InChI=1S/C30H35ClF2N8O4/c1-19(42)38-8-12-40(13-9-38)21-4-6-24(26(16-21)44-3)36-30-34-18-23(31)28(37-30)35-25-7-5-22(17-27(25)45-29(32)33)41-14-10-39(11-15-41)20(2)43/h4-7,16-18,29H,8-15H2,1-3H3,(H2,34,35,36,37)

> <Ligand InChI Key>
KONZHTBCJPKBJF-UHFFFAOYSA-N

> <BindingDB MonomerID>
193453

> <BindingDB Ligand Name>
US9199944, 35

> <Target Name Assigned by Curator or DataSource>
ALK tyrosine kinase receptor

> <Target Source Organism According to Curator or DataSource>
Homo sapiens

> <Ki (nM)>


> <IC50 (nM)>
 10

> <Kd (nM)>


> <EC50 (nM)>


> <kon (M-1-s-1)>


> <koff (s-1)>


> <pH>


> <Temp C>
25.00

> <Curation/DataSource>
US Patent

> <Article DOI>


> <PMID>


> <PubChem AID>


> <Patent Number>
US9199944

> <Authors>
Lee, K; Kim, HR; Park, CH; Lee, CO; Lee, JK; Jung, HJ; Cho, SY; Chae, CH; Choi, SU; Ha, JD

> <Institution>
KOREA RESEARCH INSTITUTE OF CHEMICAL TECHNOLOGY

> <Link to Ligand in BindingDB>
http://www.bindingdb.org/bind/chemsearch/marvin/MolStructure.jsp?monomerid=193453

> <Link to Ligand-Target Pair in BindingDB>
http://www.bindingdb.org/jsp/dbsearch/PrimarySearch_ki.jsp?energyterm=kJ/mole&tag=pol&polymerid=5809&target=ALK+tyrosine+kinase+receptor&column=ki&startPg=0&Increment=50&submit=Search

> <Link to Ligand-Target Pair in BindingDB>
http://www.bindingdb.org/jsp/dbsearch/PrimarySearch_ki.jsp?energyterm=kJ/mole&tag=r21&monomerid=193453&enzyme=ALK+tyrosine+kinase+receptor&column=ki&startPg=0&Increment=50&submit=Search

> <Ligand HET ID in PDB>


> <PDB ID(s) for Ligand-Target Complex>


> <PubChem CID>
72546962

> <PubChem SID>
317230773

> <ChEBI ID of Ligand>


> <ChEMBL ID of Ligand>


> <DrugBank ID of Ligand>


> <IUPHAR_GRAC ID of Ligand>


> <KEGG ID of Ligand>


> <ZINC ID of Ligand>


> <Number of Protein Chains in Target (>1 implies a multichain complex)>
1

> <BindingDB Target Chain Sequence>
MGAIGLLWLLPLLLSTAAVGSGMGTGQRAGSPAAGPPLQPREPLSYSRLQRKSLAVDFVVPSLFRVYARDLLLPPSSSELKAGRPEARGSLALDCAPLLRLLGPAPGVSWTAGSPAPAEARTLSRVLKGGSVRKLRRAKQLVLELGEEAILEGCVGPPGEAAVGLLQFNLSELFSWWIRQGEGRLRIRLMPEKKASEVGREGRLSAAIRASQPRLLFQIFGTGHSSLESPTNMPSPSPDYFTWNLTWIMKDSFPFLSHRSRYGLECSFDFPCELEYSPPLHDLRNQSWSWRRIPSEEASQMDLLDGPGAERSKEMPRGSFLLLNTSADSKHTILSPWMRSSSEHCTLAVSVHRHLQPSGRYIAQLLPHNEAAREILLMPTPGKHGWTVLQGRIGRPDNPFRVALEYISSGNRSLSAVDFFALKNCSEGTSPGSKMALQSSFTCWNGTVLQLGQACDFHQDCAQGEDESQMCRKLPVGFYCNFEDGFCGWTQGTLSPHTPQWQVRTLKDARFQDHQDHALLLSTTDVPASESATVTSATFPAPIKSSPCELRMSWLIRGVLRGNVSLVLVENKTGKEQGRMVWHVAAYEGLSLWQWMVLPLLDVSDRFWLQMVAWWGQGSRAIVAFDNISISLDCYLTISGEDKILQNTAPKSRNLFERNPNKELKPGENSPRQTPIFDPTVHWLFTTCGASGPHGPTQAQCNNAYQNSNLSVEVGSEGPLKGIQIWKVPATDTYSISGYGAAGGKGGKNTMMRSHGVSVLGIFNLEKDDMLYILVGQQGEDACPSTNQLIQKVCIGENNVIEEEIRVNRSVHEWAGGGGGGGGATYVFKMKDGVPVPLIIAAGGGGRAYGAKTDTFHPERLENNSSVLGLNGNSGAAGGGGGWNDNTSLLWAGKSLQEGATGGHSCPQAMKKWGWETRGGFGGGGGGCSSGGGGGGYIGGNAASNNDPEMDGEDGVSFISPLGILYTPALKVMEGHGEVNIKHYLNCSHCEVDECHMDPESHKVICFCDHGTVLAEDGVSCIVSPTPEPHLPLSLILSVVTSALVAALVLAFSGIMIVYRRKHQELQAMQMELQSPEYKLSKLRTSTIMTDYNPNYCFAGKTSSISDLKEVPRKNITLIRGLGHGAFGEVYEGQVSGMPNDPSPLQVAVKTLPEVCSEQDELDFLMEALIISKFNHQNIVRCIGVSLQSLPRFILLELMAGGDLKSFLRETRPRPSQPSSLAMLDLLHVARDIACGCQYLEENHFIHRDIAARNCLLTCPGPGRVAKIGDFGMARDIYRASYYRKGGCAMLPVKWMPPEAFMEGIFTSKTDTWSFGVLLWEIFSLGYMPYPSKSNQEVLEFVTSGGRMDPPKNCPGPVYRIMTQCWQHQPEDRPNFAIILERIEYCTQDPDVINTALPIEYGPLVEEEEKVPVRPKDPEGVPPLLVSQQAKREEERSPAAPPPLPTTSSGKAAKKPTAAEISVRVPRGPAVEGGHVNMAFSQSNPPSELHKVHGSRNKPTSLWNPTYGSWFTEKPTKKNNPIAKKEPHDRGNLGLEGSCTVPPNVATGRLPGASLLLEPSSLTANMKEVPLFRLRHFPCGNVNYGYQQQGLPLEAATAPGAGHYEDTILKSKNSMNQPGP

> <PDB ID(s) of Target Chain>
2XB7,2XBA,3AOX,5FTO,5FTQ,6E0R,6EBW,6EDL,6MX8

> <UniProt (SwissProt) Recommended Name of Target Chain>
ALK tyrosine kinase receptor

> <UniProt (SwissProt) Entry Name of Target Chain>
ALK_HUMAN

> <UniProt (SwissProt) Primary ID of Target Chain>
Q9UM73

> <UniProt (SwissProt) Secondary ID(s) of Target Chain>
Q4ZFX9,Q53QQ6,Q53RZ4,Q59FI3,Q9Y4K6

> <UniProt (SwissProt) Alternative ID(s) of Target Chain>


> <UniProt (TrEMBL) Submitted Name of Target Chain>


> <UniProt (TrEMBL) Entry Name of Target Chain>


> <UniProt (TrEMBL) Primary ID of Target Chain>


> <UniProt (TrEMBL) Secondary ID(s) of Target Chain>


> <UniProt (TrEMBL) Alternative ID(s) of Target Chain>


$$$$
00109001.cdx

Vconf v2.0 Academic SN VC001-00000579
 46 50  0  0  0  0  0  0  0  0999 V2000
   -1.4288   -1.2374    0.0000 C   0  0  0  0  0  0  0  0  0  0  0
   -1.4288   -2.0624    0.0000 C   0  0  0  0  0  0  0  0  0  0  0
   -0.7145   -2.4749    0.0000 N   0  0  0  0  0  0  0  0  0  0  0
    0.0000   -2.0624    0.0000 C   0  0  0  0  0  0  0  0  0  0  0
    0.0000   -1.2374    0.0000 N   0  0  0  0  0  0  0  0  0  0  0
   -0.7145   -0.8250    0.0000 C   0  0  0  0  0  0  0  0  0  0  0
    0.7145   -2.4749    0.0000 N   0  0  0  0  0  0  0  0  0  0  0
    1.4288   -2.0624    0.0000 C   0  0  0  0  0  0  0  0  0  0  0
    1.4288   -1.2374    0.0000 C   0  0  0  0  0  0  0  0  0  0  0
    2.1433   -2.4749    0.0000 C   0  0  0  0  0  0  0  0  0  0  0
    2.8578   -2.0624    0.0000 C   0  0  0  0  0  0  0  0  0  0  0
    2.8578   -1.2374    0.0000 C   0  0  0  0  0  0  0  0  0  0  0
    2.1433   -0.8250    0.0000 C   0  0  0  0  0  0  0  0  0  0  0
    4.2867   -1.2374    0.0000 C   0  0  0  0  0  0  0  0  0  0  0
    3.5722   -0.8250    0.0000 N   0  0  0  0  0  0  0  0  0  0  0
    5.0011   -0.8250    0.0000 C   0  0  0  0  0  0  0  0  0  0  0
    5.0011    0.0000    0.0000 N   0  0  0  0  0  0  0  0  0  0  0
    4.2867    0.4125    0.0000 C   0  0  0  0  0  0  0  0  0  0  0
    3.5722    0.0000    0.0000 C   0  0  0  0  0  0  0  0  0  0  0
   -0.7145    0.0000    0.0000 N   0  0  0  0  0  0  0  0  0  0  0
   -1.4288    0.4125    0.0000 C   0  0  0  0  0  0  0  0  0  0  0
   -2.1433    0.0000    0.0000 C   0  0  0  0  0  0  0  0  0  0  0
   -2.1433   -0.8250    0.0000 Cl  0  0  0  0  0  0  0  0  0  0  0
   -1.4288    1.2374    0.0000 C   0  0  0  0  0  0  0  0  0  0  0
   -2.1433    1.6499    0.0000 C   0  0  0  0  0  0  0  0  0  0  0
   -2.8578    1.2374    0.0000 C   0  0  0  0  0  0  0  0  0  0  0
   -2.8578    0.4125    0.0000 C   0  0  0  0  0  0  0  0  0  0  0
   -3.5722    2.4749    0.0000 C   0  0  0  0  0  0  0  0  0  0  0
   -3.5722    1.6499    0.0000 N   0  0  0  0  0  0  0  0  0  0  0
   -4.2867    2.8874    0.0000 C   0  0  0  0  0  0  0  0  0  0  0
   -5.0011    2.4749    0.0000 N   0  0  0  0  0  0  0  0  0  0  0
   -5.0011    1.6499    0.0000 C   0  0  0  0  0  0  0  0  0  0  0
   -4.2867    1.2374    0.0000 C   0  0  0  0  0  0  0  0  0  0  0
    5.7155    0.4125    0.0000 C   0  0  0  0  0  0  0  0  0  0  0
    2.1433   -3.2998    0.0000 O   0  0  0  0  0  0  0  0  0  0  0
    2.8578   -3.7123    0.0000 C   0  0  0  0  0  0  0  0  0  0  0
   -0.7145    1.6499    0.0000 N   0  0  0  0  0  0  0  0  0  0  0
    6.4300    0.0000    0.0000 C   0  0  0  0  0  0  0  0  0  0  0
    5.7155    1.2374    0.0000 O   0  0  0  0  0  0  0  0  0  0  0
   -0.7145    2.4749    0.0000 C   0  0  0  0  0  0  0  0  0  0  0
   -5.7155    2.8874    0.0000 C   0  0  0  0  0  0  0  0  0  0  0
   -6.4300    2.4749    0.0000 C   0  0  0  0  0  0  0  0  0  0  0
   -5.7155    3.7123    0.0000 O   0  0  0  0  0  0  0  0  0  0  0
    0.0000    2.8874    0.0000 C   0  0  0  0  0  0  0  0  0  0  0
   -1.4288    2.8874    0.0000 C   0  0  0  0  0  0  0  0  0  0  0
   -0.7145    3.2998    0.0000 C   0  0  0  0  0  0  0  0  0  0  0
  1  2  4  0  0  0  0
  2  3  4  0  0  0  0
  3  4  4  0  0  0  0
  4  5  4  0  0  0  0
  5  6  4  0  0  0  0
  6  1  4  0  0  0  0
  4  7  1  0  0  0  0
  7  8  1  0  0  0  0
  8  9  4  0  0  0  0
  8 10  4  0  0  0  0
 10 11  4  0  0  0  0
 11 12  4  0  0  0  0
 12 13  4  0  0  0  0
 13  9  4  0  0  0  0
 14 15  1  0  0  0  0
 15 12  1  0  0  0  0
 14 16  1  0  0  0  0
 16 17  1  0  0  0  0
 17 18  1  0  0  0  0
 18 19  1  0  0  0  0
 19 15  1  0  0  0  0
  6 20  1  0  0  0  0
 20 21  1  0  0  0  0
 21 22  4  0  0  0  0
 23  1  1  0  0  0  0
 21 24  4  0  0  0  0
 24 25  4  0  0  0  0
 25 26  4  0  0  0  0
 26 27  4  0  0  0  0
 27 22  4  0  0  0  0
 28 29  1  0  0  0  0
 29 26  1  0  0  0  0
 28 30  1  0  0  0  0
 30 31  1  0  0  0  0
 31 32  1  0  0  0  0
 32 33  1  0  0  0  0
 33 29  1  0  0  0  0
 17 34  1  0  0  0  0
 10 35  1  0  0  0  0
 35 36  1  0  0  0  0
 24 37  1  0  0  0  0
 34 38  1  0  0  0  0
 34 39  2  0  0  0  0
 37 40  1  0  0  0  0
 31 41  1  0  0  0  0
 41 42  1  0  0  0  0
 41 43  2  0  0  0  0
 40 44  1  0  0  0  0
 45 40  1  0  0  0  0
 40 46  1  0  0  0  0
M  END
> <From>
www.bindingDB.org

> <BindingDB Reactant_set_id>
345720

> <Ligand InChI>
InChI=1S/C33H44ClN9O3/c1-22(44)40-11-15-42(16-12-40)24-7-9-27(29(19-24)39-33(3,4)5)36-31-26(34)21-35-32(38-31)37-28-10-8-25(20-30(28)46-6)43-17-13-41(14-18-43)23(2)45/h7-10,19-21,39H,11-18H2,1-6H3,(H2,35,36,37,38)

> <Ligand InChI Key>
YSHYQGBMUYFAEC-UHFFFAOYSA-N

> <BindingDB MonomerID>
193464

> <BindingDB Ligand Name>
US9199944, 46

> <Target Name Assigned by Curator or DataSource>
ALK tyrosine kinase receptor

> <Target Source Organism According to Curator or DataSource>
Homo sapiens

> <Ki (nM)>


> <IC50 (nM)>
 580

> <Kd (nM)>


> <EC50 (nM)>


> <kon (M-1-s-1)>


> <koff (s-1)>


> <pH>


> <Temp C>
25.00

> <Curation/DataSource>
US Patent

> <Article DOI>


> <PMID>


> <PubChem AID>


> <Patent Number>
US9199944

> <Authors>
Lee, K; Kim, HR; Park, CH; Lee, CO; Lee, JK; Jung, HJ; Cho, SY; Chae, CH; Choi, SU; Ha, JD

> <Institution>
KOREA RESEARCH INSTITUTE OF CHEMICAL TECHNOLOGY

> <Link to Ligand in BindingDB>
http://www.bindingdb.org/bind/chemsearch/marvin/MolStructure.jsp?monomerid=193464

> <Link to Ligand-Target Pair in BindingDB>
http://www.bindingdb.org/jsp/dbsearch/PrimarySearch_ki.jsp?energyterm=kJ/mole&tag=pol&polymerid=5809&target=ALK+tyrosine+kinase+receptor&column=ki&startPg=0&Increment=50&submit=Search

> <Link to Ligand-Target Pair in BindingDB>
http://www.bindingdb.org/jsp/dbsearch/PrimarySearch_ki.jsp?energyterm=kJ/mole&tag=r21&monomerid=193464&enzyme=ALK+tyrosine+kinase+receptor&column=ki&startPg=0&Increment=50&submit=Search

> <Ligand HET ID in PDB>


> <PDB ID(s) for Ligand-Target Complex>


> <PubChem CID>
72547226

> <PubChem SID>
317230784

> <ChEBI ID of Ligand>


> <ChEMBL ID of Ligand>


> <DrugBank ID of Ligand>


> <IUPHAR_GRAC ID of Ligand>


> <KEGG ID of Ligand>


> <ZINC ID of Ligand>


> <Number of Protein Chains in Target (>1 implies a multichain complex)>
1

> <BindingDB Target Chain Sequence>
MGAIGLLWLLPLLLSTAAVGSGMGTGQRAGSPAAGPPLQPREPLSYSRLQRKSLAVDFVVPSLFRVYARDLLLPPSSSELKAGRPEARGSLALDCAPLLRLLGPAPGVSWTAGSPAPAEARTLSRVLKGGSVRKLRRAKQLVLELGEEAILEGCVGPPGEAAVGLLQFNLSELFSWWIRQGEGRLRIRLMPEKKASEVGREGRLSAAIRASQPRLLFQIFGTGHSSLESPTNMPSPSPDYFTWNLTWIMKDSFPFLSHRSRYGLECSFDFPCELEYSPPLHDLRNQSWSWRRIPSEEASQMDLLDGPGAERSKEMPRGSFLLLNTSADSKHTILSPWMRSSSEHCTLAVSVHRHLQPSGRYIAQLLPHNEAAREILLMPTPGKHGWTVLQGRIGRPDNPFRVALEYISSGNRSLSAVDFFALKNCSEGTSPGSKMALQSSFTCWNGTVLQLGQACDFHQDCAQGEDESQMCRKLPVGFYCNFEDGFCGWTQGTLSPHTPQWQVRTLKDARFQDHQDHALLLSTTDVPASESATVTSATFPAPIKSSPCELRMSWLIRGVLRGNVSLVLVENKTGKEQGRMVWHVAAYEGLSLWQWMVLPLLDVSDRFWLQMVAWWGQGSRAIVAFDNISISLDCYLTISGEDKILQNTAPKSRNLFERNPNKELKPGENSPRQTPIFDPTVHWLFTTCGASGPHGPTQAQCNNAYQNSNLSVEVGSEGPLKGIQIWKVPATDTYSISGYGAAGGKGGKNTMMRSHGVSVLGIFNLEKDDMLYILVGQQGEDACPSTNQLIQKVCIGENNVIEEEIRVNRSVHEWAGGGGGGGGATYVFKMKDGVPVPLIIAAGGGGRAYGAKTDTFHPERLENNSSVLGLNGNSGAAGGGGGWNDNTSLLWAGKSLQEGATGGHSCPQAMKKWGWETRGGFGGGGGGCSSGGGGGGYIGGNAASNNDPEMDGEDGVSFISPLGILYTPALKVMEGHGEVNIKHYLNCSHCEVDECHMDPESHKVICFCDHGTVLAEDGVSCIVSPTPEPHLPLSLILSVVTSALVAALVLAFSGIMIVYRRKHQELQAMQMELQSPEYKLSKLRTSTIMTDYNPNYCFAGKTSSISDLKEVPRKNITLIRGLGHGAFGEVYEGQVSGMPNDPSPLQVAVKTLPEVCSEQDELDFLMEALIISKFNHQNIVRCIGVSLQSLPRFILLELMAGGDLKSFLRETRPRPSQPSSLAMLDLLHVARDIACGCQYLEENHFIHRDIAARNCLLTCPGPGRVAKIGDFGMARDIYRASYYRKGGCAMLPVKWMPPEAFMEGIFTSKTDTWSFGVLLWEIFSLGYMPYPSKSNQEVLEFVTSGGRMDPPKNCPGPVYRIMTQCWQHQPEDRPNFAIILERIEYCTQDPDVINTALPIEYGPLVEEEEKVPVRPKDPEGVPPLLVSQQAKREEERSPAAPPPLPTTSSGKAAKKPTAAEISVRVPRGPAVEGGHVNMAFSQSNPPSELHKVHGSRNKPTSLWNPTYGSWFTEKPTKKNNPIAKKEPHDRGNLGLEGSCTVPPNVATGRLPGASLLLEPSSLTANMKEVPLFRLRHFPCGNVNYGYQQQGLPLEAATAPGAGHYEDTILKSKNSMNQPGP

> <PDB ID(s) of Target Chain>
2XB7,2XBA,3AOX,5FTO,5FTQ,6E0R,6EBW,6EDL,6MX8

> <UniProt (SwissProt) Recommended Name of Target Chain>
ALK tyrosine kinase receptor

> <UniProt (SwissProt) Entry Name of Target Chain>
ALK_HUMAN

> <UniProt (SwissProt) Primary ID of Target Chain>
Q9UM73

> <UniProt (SwissProt) Secondary ID(s) of Target Chain>
Q4ZFX9,Q53QQ6,Q53RZ4,Q59FI3,Q9Y4K6

> <UniProt (SwissProt) Alternative ID(s) of Target Chain>


> <UniProt (TrEMBL) Submitted Name of Target Chain>


> <UniProt (TrEMBL) Entry Name of Target Chain>


> <UniProt (TrEMBL) Primary ID of Target Chain>


> <UniProt (TrEMBL) Secondary ID(s) of Target Chain>


> <UniProt (TrEMBL) Alternative ID(s) of Target Chain>


$$$$
00110001.cdx

Vconf v2.0 Academic SN VC001-00000579
 48 53  0  0  0  0  0  0  0  0999 V2000
   -1.4288   -1.4437    0.0000 C   0  0  0  0  0  0  0  0  0  0  0
   -1.4288   -2.2686    0.0000 C   0  0  0  0  0  0  0  0  0  0  0
   -0.7145   -2.6811    0.0000 N   0  0  0  0  0  0  0  0  0  0  0
    0.0000   -2.2686    0.0000 C   0  0  0  0  0  0  0  0  0  0  0
    0.0000   -1.4437    0.0000 N   0  0  0  0  0  0  0  0  0  0  0
   -0.7145   -1.0312    0.0000 C   0  0  0  0  0  0  0  0  0  0  0
    0.7145   -2.6811    0.0000 N   0  0  0  0  0  0  0  0  0  0  0
    1.4288   -2.2686    0.0000 C   0  0  0  0  0  0  0  0  0  0  0
    1.4288   -1.4437    0.0000 C   0  0  0  0  0  0  0  0  0  0  0
    2.1433   -2.6811    0.0000 C   0  0  0  0  0  0  0  0  0  0  0
    2.8578   -2.2686    0.0000 C   0  0  0  0  0  0  0  0  0  0  0
    2.8578   -1.4437    0.0000 C   0  0  0  0  0  0  0  0  0  0  0
    2.1433   -1.0312    0.0000 C   0  0  0  0  0  0  0  0  0  0  0
    4.2867   -1.4437    0.0000 C   0  0  0  0  0  0  0  0  0  0  0
    3.5722   -1.0312    0.0000 N   0  0  0  0  0  0  0  0  0  0  0
    5.0011   -1.0312    0.0000 C   0  0  0  0  0  0  0  0  0  0  0
    5.0011   -0.2062    0.0000 N   0  0  0  0  0  0  0  0  0  0  0
    4.2867    0.2062    0.0000 C   0  0  0  0  0  0  0  0  0  0  0
    3.5722   -0.2062    0.0000 C   0  0  0  0  0  0  0  0  0  0  0
   -0.7145   -0.2062    0.0000 N   0  0  0  0  0  0  0  0  0  0  0
   -1.4288    0.2062    0.0000 C   0  0  0  0  0  0  0  0  0  0  0
   -2.1433   -0.2062    0.0000 C   0  0  0  0  0  0  0  0  0  0  0
   -2.1433   -1.0312    0.0000 Cl  0  0  0  0  0  0  0  0  0  0  0
   -1.4288    1.0312    0.0000 C   0  0  0  0  0  0  0  0  0  0  0
   -2.1433    1.4437    0.0000 C   0  0  0  0  0  0  0  0  0  0  0
   -2.8578    1.0312    0.0000 C   0  0  0  0  0  0  0  0  0  0  0
   -2.8578    0.2062    0.0000 C   0  0  0  0  0  0  0  0  0  0  0
   -3.5722    2.2686    0.0000 C   0  0  0  0  0  0  0  0  0  0  0
   -3.5722    1.4437    0.0000 N   0  0  0  0  0  0  0  0  0  0  0
   -4.2867    2.6811    0.0000 C   0  0  0  0  0  0  0  0  0  0  0
   -5.0011    2.2686    0.0000 N   0  0  0  0  0  0  0  0  0  0  0
   -5.0011    1.4437    0.0000 C   0  0  0  0  0  0  0  0  0  0  0
   -4.2867    1.0312    0.0000 C   0  0  0  0  0  0  0  0  0  0  0
    5.7155    0.2062    0.0000 C   0  0  0  0  0  0  0  0  0  0  0
    2.1433   -3.5061    0.0000 O   0  0  0  0  0  0  0  0  0  0  0
    2.8578   -3.9186    0.0000 C   0  0  0  0  0  0  0  0  0  0  0
   -0.7145    1.4437    0.0000 N   0  0  0  0  0  0  0  0  0  0  0
    6.4300   -0.2062    0.0000 C   0  0  0  0  0  0  0  0  0  0  0
    5.7155    1.0312    0.0000 O   0  0  0  0  0  0  0  0  0  0  0
   -0.7145    2.2686    0.0000 C   0  0  0  0  0  0  0  0  0  0  0
   -5.7155    2.6811    0.0000 C   0  0  0  0  0  0  0  0  0  0  0
   -6.4300    2.2686    0.0000 C   0  0  0  0  0  0  0  0  0  0  0
   -5.7155    3.5061    0.0000 O   0  0  0  0  0  0  0  0  0  0  0
    0.0000    2.6811    0.0000 C   0  0  0  0  0  0  0  0  0  0  0
    0.0000    3.5061    0.0000 C   0  0  0  0  0  0  0  0  0  0  0
   -0.7145    3.9186    0.0000 C   0  0  0  0  0  0  0  0  0  0  0
   -1.4288    3.5061    0.0000 C   0  0  0  0  0  0  0  0  0  0  0
   -1.4288    2.6811    0.0000 C   0  0  0  0  0  0  0  0  0  0  0
  1  2  4  0  0  0  0
  2  3  4  0  0  0  0
  3  4  4  0  0  0  0
  4  5  4  0  0  0  0
  5  6  4  0  0  0  0
  6  1  4  0  0  0  0
  4  7  1  0  0  0  0
  7  8  1  0  0  0  0
  8  9  4  0  0  0  0
  8 10  4  0  0  0  0
 10 11  4  0  0  0  0
 11 12  4  0  0  0  0
 12 13  4  0  0  0  0
 13  9  4  0  0  0  0
 14 15  1  0  0  0  0
 15 12  1  0  0  0  0
 14 16  1  0  0  0  0
 16 17  1  0  0  0  0
 17 18  1  0  0  0  0
 18 19  1  0  0  0  0
 19 15  1  0  0  0  0
  6 20  1  0  0  0  0
 20 21  1  0  0  0  0
 21 22  4  0  0  0  0
 23  1  1  0  0  0  0
 21 24  4  0  0  0  0
 24 25  4  0  0  0  0
 25 26  4  0  0  0  0
 26 27  4  0  0  0  0
 27 22  4  0  0  0  0
 28 29  1  0  0  0  0
 29 26  1  0  0  0  0
 28 30  1  0  0  0  0
 30 31  1  0  0  0  0
 31 32  1  0  0  0  0
 32 33  1  0  0  0  0
 33 29  1  0  0  0  0
 17 34  1  0  0  0  0
 10 35  1  0  0  0  0
 35 36  1  0  0  0  0
 24 37  1  0  0  0  0
 34 38  1  0  0  0  0
 34 39  2  0  0  0  0
 37 40  1  0  0  0  0
 31 41  1  0  0  0  0
 41 42  1  0  0  0  0
 41 43  2  0  0  0  0
 40 44  4  0  0  0  0
 44 45  4  0  0  0  0
 45 46  4  0  0  0  0
 46 47  4  0  0  0  0
 47 48  4  0  0  0  0
 48 40  4  0  0  0  0
M  END
> <From>
www.bindingDB.org

> <BindingDB Reactant_set_id>
345721

> <Ligand InChI>
InChI=1S/C35H40ClN9O3/c1-24(46)42-13-17-44(18-14-42)27-9-11-30(32(21-27)38-26-7-5-4-6-8-26)39-34-29(36)23-37-35(41-34)40-31-12-10-28(22-33(31)48-3)45-19-15-43(16-20-45)25(2)47/h4-12,21-23,38H,13-20H2,1-3H3,(H2,37,39,40,41)

> <Ligand InChI Key>
JXPCHNMAQXAGHI-UHFFFAOYSA-N

> <BindingDB MonomerID>
193465

> <BindingDB Ligand Name>
US9199944, 47

> <Target Name Assigned by Curator or DataSource>
ALK tyrosine kinase receptor

> <Target Source Organism According to Curator or DataSource>
Homo sapiens

> <Ki (nM)>


> <IC50 (nM)>
>1000

> <Kd (nM)>


> <EC50 (nM)>


> <kon (M-1-s-1)>


> <koff (s-1)>


> <pH>


> <Temp C>
25.00

> <Curation/DataSource>
US Patent

> <Article DOI>


> <PMID>


> <PubChem AID>


> <Patent Number>
US9199944

> <Authors>
Lee, K; Kim, HR; Park, CH; Lee, CO; Lee, JK; Jung, HJ; Cho, SY; Chae, CH; Choi, SU; Ha, JD

> <Institution>
KOREA RESEARCH INSTITUTE OF CHEMICAL TECHNOLOGY

> <Link to Ligand in BindingDB>
http://www.bindingdb.org/bind/chemsearch/marvin/MolStructure.jsp?monomerid=193465

> <Link to Ligand-Target Pair in BindingDB>
http://www.bindingdb.org/jsp/dbsearch/PrimarySearch_ki.jsp?energyterm=kJ/mole&tag=pol&polymerid=5809&target=ALK+tyrosine+kinase+receptor&column=ki&startPg=0&Increment=50&submit=Search

> <Link to Ligand-Target Pair in BindingDB>
http://www.bindingdb.org/jsp/dbsearch/PrimarySearch_ki.jsp?energyterm=kJ/mole&tag=r21&monomerid=193465&enzyme=ALK+tyrosine+kinase+receptor&column=ki&startPg=0&Increment=50&submit=Search

> <Ligand HET ID in PDB>


> <PDB ID(s) for Ligand-Target Complex>


> <PubChem CID>
72547227

> <PubChem SID>
317230785

> <ChEBI ID of Ligand>


> <ChEMBL ID of Ligand>


> <DrugBank ID of Ligand>


> <IUPHAR_GRAC ID of Ligand>


> <KEGG ID of Ligand>


> <ZINC ID of Ligand>


> <Number of Protein Chains in Target (>1 implies a multichain complex)>
1

> <BindingDB Target Chain Sequence>
MGAIGLLWLLPLLLSTAAVGSGMGTGQRAGSPAAGPPLQPREPLSYSRLQRKSLAVDFVVPSLFRVYARDLLLPPSSSELKAGRPEARGSLALDCAPLLRLLGPAPGVSWTAGSPAPAEARTLSRVLKGGSVRKLRRAKQLVLELGEEAILEGCVGPPGEAAVGLLQFNLSELFSWWIRQGEGRLRIRLMPEKKASEVGREGRLSAAIRASQPRLLFQIFGTGHSSLESPTNMPSPSPDYFTWNLTWIMKDSFPFLSHRSRYGLECSFDFPCELEYSPPLHDLRNQSWSWRRIPSEEASQMDLLDGPGAERSKEMPRGSFLLLNTSADSKHTILSPWMRSSSEHCTLAVSVHRHLQPSGRYIAQLLPHNEAAREILLMPTPGKHGWTVLQGRIGRPDNPFRVALEYISSGNRSLSAVDFFALKNCSEGTSPGSKMALQSSFTCWNGTVLQLGQACDFHQDCAQGEDESQMCRKLPVGFYCNFEDGFCGWTQGTLSPHTPQWQVRTLKDARFQDHQDHALLLSTTDVPASESATVTSATFPAPIKSSPCELRMSWLIRGVLRGNVSLVLVENKTGKEQGRMVWHVAAYEGLSLWQWMVLPLLDVSDRFWLQMVAWWGQGSRAIVAFDNISISLDCYLTISGEDKILQNTAPKSRNLFERNPNKELKPGENSPRQTPIFDPTVHWLFTTCGASGPHGPTQAQCNNAYQNSNLSVEVGSEGPLKGIQIWKVPATDTYSISGYGAAGGKGGKNTMMRSHGVSVLGIFNLEKDDMLYILVGQQGEDACPSTNQLIQKVCIGENNVIEEEIRVNRSVHEWAGGGGGGGGATYVFKMKDGVPVPLIIAAGGGGRAYGAKTDTFHPERLENNSSVLGLNGNSGAAGGGGGWNDNTSLLWAGKSLQEGATGGHSCPQAMKKWGWETRGGFGGGGGGCSSGGGGGGYIGGNAASNNDPEMDGEDGVSFISPLGILYTPALKVMEGHGEVNIKHYLNCSHCEVDECHMDPESHKVICFCDHGTVLAEDGVSCIVSPTPEPHLPLSLILSVVTSALVAALVLAFSGIMIVYRRKHQELQAMQMELQSPEYKLSKLRTSTIMTDYNPNYCFAGKTSSISDLKEVPRKNITLIRGLGHGAFGEVYEGQVSGMPNDPSPLQVAVKTLPEVCSEQDELDFLMEALIISKFNHQNIVRCIGVSLQSLPRFILLELMAGGDLKSFLRETRPRPSQPSSLAMLDLLHVARDIACGCQYLEENHFIHRDIAARNCLLTCPGPGRVAKIGDFGMARDIYRASYYRKGGCAMLPVKWMPPEAFMEGIFTSKTDTWSFGVLLWEIFSLGYMPYPSKSNQEVLEFVTSGGRMDPPKNCPGPVYRIMTQCWQHQPEDRPNFAIILERIEYCTQDPDVINTALPIEYGPLVEEEEKVPVRPKDPEGVPPLLVSQQAKREEERSPAAPPPLPTTSSGKAAKKPTAAEISVRVPRGPAVEGGHVNMAFSQSNPPSELHKVHGSRNKPTSLWNPTYGSWFTEKPTKKNNPIAKKEPHDRGNLGLEGSCTVPPNVATGRLPGASLLLEPSSLTANMKEVPLFRLRHFPCGNVNYGYQQQGLPLEAATAPGAGHYEDTILKSKNSMNQPGP

> <PDB ID(s) of Target Chain>
2XB7,2XBA,3AOX,5FTO,5FTQ,6E0R,6EBW,6EDL,6MX8

> <UniProt (SwissProt) Recommended Name of Target Chain>
ALK tyrosine kinase receptor

> <UniProt (SwissProt) Entry Name of Target Chain>
ALK_HUMAN

> <UniProt (SwissProt) Primary ID of Target Chain>
Q9UM73

> <UniProt (SwissProt) Secondary ID(s) of Target Chain>
Q4ZFX9,Q53QQ6,Q53RZ4,Q59FI3,Q9Y4K6

> <UniProt (SwissProt) Alternative ID(s) of Target Chain>


> <UniProt (TrEMBL) Submitted Name of Target Chain>


> <UniProt (TrEMBL) Entry Name of Target Chain>


> <UniProt (TrEMBL) Primary ID of Target Chain>


> <UniProt (TrEMBL) Secondary ID(s) of Target Chain>


> <UniProt (TrEMBL) Alternative ID(s) of Target Chain>


$$$$
00111001.cdx

Vconf v2.0 Academic SN VC001-00000579
 44 48  0  0  0  0  0  0  0  0999 V2000
   -2.1435   -0.8250    0.0000 C   0  0  0  0  0  0  0  0  0  0  0
   -2.1435   -1.6500    0.0000 C   0  0  0  0  0  0  0  0  0  0  0
   -1.4289   -2.0625    0.0000 N   0  0  0  0  0  0  0  0  0  0  0
   -0.7145   -1.6500    0.0000 C   0  0  0  0  0  0  0  0  0  0  0
   -0.7145   -0.8250    0.0000 N   0  0  0  0  0  0  0  0  0  0  0
   -1.4289   -0.4125    0.0000 C   0  0  0  0  0  0  0  0  0  0  0
    0.0000   -2.0625    0.0000 N   0  0  0  0  0  0  0  0  0  0  0
    0.7145   -1.6500    0.0000 C   0  0  0  0  0  0  0  0  0  0  0
    0.7145   -0.8250    0.0000 C   0  0  0  0  0  0  0  0  0  0  0
    1.4289   -2.0625    0.0000 C   0  0  0  0  0  0  0  0  0  0  0
    2.1435   -1.6500    0.0000 C   0  0  0  0  0  0  0  0  0  0  0
    2.1435   -0.8250    0.0000 C   0  0  0  0  0  0  0  0  0  0  0
    1.4289   -0.4125    0.0000 C   0  0  0  0  0  0  0  0  0  0  0
    3.5724   -0.8250    0.0000 C   0  0  0  0  0  0  0  0  0  0  0
    2.8579   -0.4125    0.0000 N   0  0  0  0  0  0  0  0  0  0  0
    4.2869   -0.4125    0.0000 C   0  0  0  0  0  0  0  0  0  0  0
    4.2869    0.4125    0.0000 N   0  0  0  0  0  0  0  0  0  0  0
    3.5724    0.8250    0.0000 C   0  0  0  0  0  0  0  0  0  0  0
    2.8579    0.4125    0.0000 C   0  0  0  0  0  0  0  0  0  0  0
   -1.4289    0.4125    0.0000 N   0  0  0  0  0  0  0  0  0  0  0
   -2.1435    0.8250    0.0000 C   0  0  0  0  0  0  0  0  0  0  0
   -2.8579    0.4125    0.0000 C   0  0  0  0  0  0  0  0  0  0  0
   -2.8579   -0.4125    0.0000 Cl  0  0  0  0  0  0  0  0  0  0  0
   -2.1435    1.6500    0.0000 C   0  0  0  0  0  0  0  0  0  0  0
   -2.8579    2.0625    0.0000 C   0  0  0  0  0  0  0  0  0  0  0
   -3.5724    1.6500    0.0000 C   0  0  0  0  0  0  0  0  0  0  0
   -3.5724    0.8250    0.0000 C   0  0  0  0  0  0  0  0  0  0  0
   -4.2869    2.8875    0.0000 C   0  0  0  0  0  0  0  0  0  0  0
   -4.2869    2.0625    0.0000 N   0  0  0  0  0  0  0  0  0  0  0
   -5.0013    3.3001    0.0000 C   0  0  0  0  0  0  0  0  0  0  0
   -5.7159    2.8875    0.0000 N   0  0  0  0  0  0  0  0  0  0  0
   -5.7159    2.0625    0.0000 C   0  0  0  0  0  0  0  0  0  0  0
   -5.0013    1.6500    0.0000 C   0  0  0  0  0  0  0  0  0  0  0
    5.0013    0.8250    0.0000 C   0  0  0  0  0  0  0  0  0  0  0
    1.4289   -2.8875    0.0000 O   0  0  0  0  0  0  0  0  0  0  0
    2.1435   -3.3001    0.0000 C   0  0  0  0  0  0  0  0  0  0  0
   -1.4289    2.0625    0.0000 N   0  0  0  0  0  0  0  0  0  0  0
   -0.7145    1.6500    0.0000 C   0  0  0  0  0  0  0  0  0  0  0
    5.7159    0.4125    0.0000 C   0  0  0  0  0  0  0  0  0  0  0
    5.0013    1.6500    0.0000 O   0  0  0  0  0  0  0  0  0  0  0
   -1.4289    2.8875    0.0000 C   0  0  0  0  0  0  0  0  0  0  0
   -2.1435    3.3001    0.0000 O   0  0  0  0  0  0  0  0  0  0  0
   -0.7145    3.3001    0.0000 C   0  0  0  0  0  0  0  0  0  0  0
    0.0000    2.8875    0.0000 C   0  0  0  0  0  0  0  0  0  0  0
  1  2  4  0  0  0  0
  2  3  4  0  0  0  0
  3  4  4  0  0  0  0
  4  5  4  0  0  0  0
  5  6  4  0  0  0  0
  6  1  4  0  0  0  0
  4  7  1  0  0  0  0
  7  8  1  0  0  0  0
  8  9  4  0  0  0  0
  8 10  4  0  0  0  0
 10 11  4  0  0  0  0
 11 12  4  0  0  0  0
 12 13  4  0  0  0  0
 13  9  4  0  0  0  0
 14 15  1  0  0  0  0
 15 12  1  0  0  0  0
 14 16  1  0  0  0  0
 16 17  1  0  0  0  0
 17 18  1  0  0  0  0
 18 19  1  0  0  0  0
 19 15  1  0  0  0  0
  6 20  1  0  0  0  0
 20 21  1  0  0  0  0
 21 22  4  0  0  0  0
 23  1  1  0  0  0  0
 21 24  4  0  0  0  0
 24 25  4  0  0  0  0
 25 26  4  0  0  0  0
 26 27  4  0  0  0  0
 27 22  4  0  0  0  0
 28 29  1  0  0  0  0
 29 26  1  0  0  0  0
 28 30  1  0  0  0  0
 30 31  1  0  0  0  0
 31 32  1  0  0  0  0
 32 33  1  0  0  0  0
 33 29  1  0  0  0  0
 17 34  1  0  0  0  0
 10 35  1  0  0  0  0
 35 36  1  0  0  0  0
 24 37  1  0  0  0  0
 37 38  1  0  0  0  0
 34 39  1  0  0  0  0
 34 40  2  0  0  0  0
 37 41  1  0  0  0  0
 41 42  2  0  0  0  0
 41 43  1  0  0  0  0
 43 44  1  0  0  0  0
M  END
> <From>
www.bindingDB.org

> <BindingDB Reactant_set_id>
345722

> <Ligand InChI>
InChI=1S/C31H40ClN9O3/c1-5-29(43)38(3)27-18-22(40-12-10-33-11-13-40)6-8-25(27)35-30-24(32)20-34-31(37-30)36-26-9-7-23(19-28(26)44-4)41-16-14-39(15-17-41)21(2)42/h6-9,18-20,33H,5,10-17H2,1-4H3,(H2,34,35,36,37)

> <Ligand InChI Key>
IRQMBRNZHZNNFX-UHFFFAOYSA-N

> <BindingDB MonomerID>
193466

> <BindingDB Ligand Name>
US9199944, 48

> <Target Name Assigned by Curator or DataSource>
ALK tyrosine kinase receptor

> <Target Source Organism According to Curator or DataSource>
Homo sapiens

> <Ki (nM)>


> <IC50 (nM)>
 760

> <Kd (nM)>


> <EC50 (nM)>


> <kon (M-1-s-1)>


> <koff (s-1)>


> <pH>


> <Temp C>
25.00

> <Curation/DataSource>
US Patent

> <Article DOI>


> <PMID>


> <PubChem AID>


> <Patent Number>
US9199944

> <Authors>
Lee, K; Kim, HR; Park, CH; Lee, CO; Lee, JK; Jung, HJ; Cho, SY; Chae, CH; Choi, SU; Ha, JD

> <Institution>
KOREA RESEARCH INSTITUTE OF CHEMICAL TECHNOLOGY

> <Link to Ligand in BindingDB>
http://www.bindingdb.org/bind/chemsearch/marvin/MolStructure.jsp?monomerid=193466

> <Link to Ligand-Target Pair in BindingDB>
http://www.bindingdb.org/jsp/dbsearch/PrimarySearch_ki.jsp?energyterm=kJ/mole&tag=pol&polymerid=5809&target=ALK+tyrosine+kinase+receptor&column=ki&startPg=0&Increment=50&submit=Search

> <Link to Ligand-Target Pair in BindingDB>
http://www.bindingdb.org/jsp/dbsearch/PrimarySearch_ki.jsp?energyterm=kJ/mole&tag=r21&monomerid=193466&enzyme=ALK+tyrosine+kinase+receptor&column=ki&startPg=0&Increment=50&submit=Search

> <Ligand HET ID in PDB>


> <PDB ID(s) for Ligand-Target Complex>


> <PubChem CID>
118105713

> <PubChem SID>
317230786

> <ChEBI ID of Ligand>


> <ChEMBL ID of Ligand>


> <DrugBank ID of Ligand>


> <IUPHAR_GRAC ID of Ligand>


> <KEGG ID of Ligand>


> <ZINC ID of Ligand>


> <Number of Protein Chains in Target (>1 implies a multichain complex)>
1

> <BindingDB Target Chain Sequence>
MGAIGLLWLLPLLLSTAAVGSGMGTGQRAGSPAAGPPLQPREPLSYSRLQRKSLAVDFVVPSLFRVYARDLLLPPSSSELKAGRPEARGSLALDCAPLLRLLGPAPGVSWTAGSPAPAEARTLSRVLKGGSVRKLRRAKQLVLELGEEAILEGCVGPPGEAAVGLLQFNLSELFSWWIRQGEGRLRIRLMPEKKASEVGREGRLSAAIRASQPRLLFQIFGTGHSSLESPTNMPSPSPDYFTWNLTWIMKDSFPFLSHRSRYGLECSFDFPCELEYSPPLHDLRNQSWSWRRIPSEEASQMDLLDGPGAERSKEMPRGSFLLLNTSADSKHTILSPWMRSSSEHCTLAVSVHRHLQPSGRYIAQLLPHNEAAREILLMPTPGKHGWTVLQGRIGRPDNPFRVALEYISSGNRSLSAVDFFALKNCSEGTSPGSKMALQSSFTCWNGTVLQLGQACDFHQDCAQGEDESQMCRKLPVGFYCNFEDGFCGWTQGTLSPHTPQWQVRTLKDARFQDHQDHALLLSTTDVPASESATVTSATFPAPIKSSPCELRMSWLIRGVLRGNVSLVLVENKTGKEQGRMVWHVAAYEGLSLWQWMVLPLLDVSDRFWLQMVAWWGQGSRAIVAFDNISISLDCYLTISGEDKILQNTAPKSRNLFERNPNKELKPGENSPRQTPIFDPTVHWLFTTCGASGPHGPTQAQCNNAYQNSNLSVEVGSEGPLKGIQIWKVPATDTYSISGYGAAGGKGGKNTMMRSHGVSVLGIFNLEKDDMLYILVGQQGEDACPSTNQLIQKVCIGENNVIEEEIRVNRSVHEWAGGGGGGGGATYVFKMKDGVPVPLIIAAGGGGRAYGAKTDTFHPERLENNSSVLGLNGNSGAAGGGGGWNDNTSLLWAGKSLQEGATGGHSCPQAMKKWGWETRGGFGGGGGGCSSGGGGGGYIGGNAASNNDPEMDGEDGVSFISPLGILYTPALKVMEGHGEVNIKHYLNCSHCEVDECHMDPESHKVICFCDHGTVLAEDGVSCIVSPTPEPHLPLSLILSVVTSALVAALVLAFSGIMIVYRRKHQELQAMQMELQSPEYKLSKLRTSTIMTDYNPNYCFAGKTSSISDLKEVPRKNITLIRGLGHGAFGEVYEGQVSGMPNDPSPLQVAVKTLPEVCSEQDELDFLMEALIISKFNHQNIVRCIGVSLQSLPRFILLELMAGGDLKSFLRETRPRPSQPSSLAMLDLLHVARDIACGCQYLEENHFIHRDIAARNCLLTCPGPGRVAKIGDFGMARDIYRASYYRKGGCAMLPVKWMPPEAFMEGIFTSKTDTWSFGVLLWEIFSLGYMPYPSKSNQEVLEFVTSGGRMDPPKNCPGPVYRIMTQCWQHQPEDRPNFAIILERIEYCTQDPDVINTALPIEYGPLVEEEEKVPVRPKDPEGVPPLLVSQQAKREEERSPAAPPPLPTTSSGKAAKKPTAAEISVRVPRGPAVEGGHVNMAFSQSNPPSELHKVHGSRNKPTSLWNPTYGSWFTEKPTKKNNPIAKKEPHDRGNLGLEGSCTVPPNVATGRLPGASLLLEPSSLTANMKEVPLFRLRHFPCGNVNYGYQQQGLPLEAATAPGAGHYEDTILKSKNSMNQPGP

> <PDB ID(s) of Target Chain>
2XB7,2XBA,3AOX,5FTO,5FTQ,6E0R,6EBW,6EDL,6MX8

> <UniProt (SwissProt) Recommended Name of Target Chain>
ALK tyrosine kinase receptor

> <UniProt (SwissProt) Entry Name of Target Chain>
ALK_HUMAN

> <UniProt (SwissProt) Primary ID of Target Chain>
Q9UM73

> <UniProt (SwissProt) Secondary ID(s) of Target Chain>
Q4ZFX9,Q53QQ6,Q53RZ4,Q59FI3,Q9Y4K6

> <UniProt (SwissProt) Alternative ID(s) of Target Chain>


> <UniProt (TrEMBL) Submitted Name of Target Chain>


> <UniProt (TrEMBL) Entry Name of Target Chain>


> <UniProt (TrEMBL) Primary ID of Target Chain>


> <UniProt (TrEMBL) Secondary ID(s) of Target Chain>


> <UniProt (TrEMBL) Alternative ID(s) of Target Chain>


$$$$
00112001.cdx

Vconf v2.0 Academic SN VC001-00000579
 45 49  0  0  0  0  0  0  0  0999 V2000
   -2.1434   -0.8250    0.0000 C   0  0  0  0  0  0  0  0  0  0  0
   -2.1434   -1.6501    0.0000 C   0  0  0  0  0  0  0  0  0  0  0
   -1.4290   -2.0625    0.0000 N   0  0  0  0  0  0  0  0  0  0  0
   -0.7144   -1.6501    0.0000 C   0  0  0  0  0  0  0  0  0  0  0
   -0.7144   -0.8250    0.0000 N   0  0  0  0  0  0  0  0  0  0  0
   -1.4290   -0.4125    0.0000 C   0  0  0  0  0  0  0  0  0  0  0
    0.0000   -2.0625    0.0000 N   0  0  0  0  0  0  0  0  0  0  0
    0.7144   -1.6501    0.0000 C   0  0  0  0  0  0  0  0  0  0  0
    0.7144   -0.8250    0.0000 C   0  0  0  0  0  0  0  0  0  0  0
    1.4290   -2.0625    0.0000 C   0  0  0  0  0  0  0  0  0  0  0
    2.1434   -1.6501    0.0000 C   0  0  0  0  0  0  0  0  0  0  0
    2.1434   -0.8250    0.0000 C   0  0  0  0  0  0  0  0  0  0  0
    1.4290   -0.4125    0.0000 C   0  0  0  0  0  0  0  0  0  0  0
    3.5724   -0.8250    0.0000 C   0  0  0  0  0  0  0  0  0  0  0
    2.8579   -0.4125    0.0000 N   0  0  0  0  0  0  0  0  0  0  0
    4.2868   -0.4125    0.0000 C   0  0  0  0  0  0  0  0  0  0  0
    4.2868    0.4125    0.0000 N   0  0  0  0  0  0  0  0  0  0  0
    3.5724    0.8250    0.0000 C   0  0  0  0  0  0  0  0  0  0  0
    2.8579    0.4125    0.0000 C   0  0  0  0  0  0  0  0  0  0  0
   -1.4290    0.4125    0.0000 N   0  0  0  0  0  0  0  0  0  0  0
   -2.1434    0.8250    0.0000 C   0  0  0  0  0  0  0  0  0  0  0
   -2.8579    0.4125    0.0000 C   0  0  0  0  0  0  0  0  0  0  0
   -2.8579   -0.4125    0.0000 Cl  0  0  0  0  0  0  0  0  0  0  0
   -2.1434    1.6500    0.0000 C   0  0  0  0  0  0  0  0  0  0  0
   -2.8579    2.0625    0.0000 C   0  0  0  0  0  0  0  0  0  0  0
   -3.5724    1.6500    0.0000 C   0  0  0  0  0  0  0  0  0  0  0
   -3.5724    0.8250    0.0000 C   0  0  0  0  0  0  0  0  0  0  0
   -4.2868    2.8876    0.0000 C   0  0  0  0  0  0  0  0  0  0  0
   -4.2868    2.0625    0.0000 N   0  0  0  0  0  0  0  0  0  0  0
   -5.0013    3.3000    0.0000 C   0  0  0  0  0  0  0  0  0  0  0
   -5.7158    2.8876    0.0000 N   0  0  0  0  0  0  0  0  0  0  0
   -5.7158    2.0625    0.0000 C   0  0  0  0  0  0  0  0  0  0  0
   -5.0013    1.6500    0.0000 C   0  0  0  0  0  0  0  0  0  0  0
    5.0013    0.8250    0.0000 C   0  0  0  0  0  0  0  0  0  0  0
    1.4290   -2.8876    0.0000 O   0  0  0  0  0  0  0  0  0  0  0
    2.1434   -3.3000    0.0000 C   0  0  0  0  0  0  0  0  0  0  0
   -1.4290    2.0625    0.0000 N   0  0  0  0  0  0  0  0  0  0  0
   -0.7144    1.6500    0.0000 C   0  0  0  0  0  0  0  0  0  0  0
    5.7158    0.4125    0.0000 C   0  0  0  0  0  0  0  0  0  0  0
    5.0013    1.6500    0.0000 O   0  0  0  0  0  0  0  0  0  0  0
   -1.4290    2.8876    0.0000 C   0  0  0  0  0  0  0  0  0  0  0
   -2.1434    3.3000    0.0000 O   0  0  0  0  0  0  0  0  0  0  0
   -0.7144    3.3000    0.0000 C   0  0  0  0  0  0  0  0  0  0  0
    0.0000    2.8876    0.0000 C   0  0  0  0  0  0  0  0  0  0  0
    0.7144    3.3000    0.0000 C   0  0  0  0  0  0  0  0  0  0  0
  1  2  4  0  0  0  0
  2  3  4  0  0  0  0
  3  4  4  0  0  0  0
  4  5  4  0  0  0  0
  5  6  4  0  0  0  0
  6  1  4  0  0  0  0
  4  7  1  0  0  0  0
  7  8  1  0  0  0  0
  8  9  4  0  0  0  0
  8 10  4  0  0  0  0
 10 11  4  0  0  0  0
 11 12  4  0  0  0  0
 12 13  4  0  0  0  0
 13  9  4  0  0  0  0
 14 15  1  0  0  0  0
 15 12  1  0  0  0  0
 14 16  1  0  0  0  0
 16 17  1  0  0  0  0
 17 18  1  0  0  0  0
 18 19  1  0  0  0  0
 19 15  1  0  0  0  0
  6 20  1  0  0  0  0
 20 21  1  0  0  0  0
 21 22  4  0  0  0  0
 23  1  1  0  0  0  0
 21 24  4  0  0  0  0
 24 25  4  0  0  0  0
 25 26  4  0  0  0  0
 26 27  4  0  0  0  0
 27 22  4  0  0  0  0
 28 29  1  0  0  0  0
 29 26  1  0  0  0  0
 28 30  1  0  0  0  0
 30 31  1  0  0  0  0
 31 32  1  0  0  0  0
 32 33  1  0  0  0  0
 33 29  1  0  0  0  0
 17 34  1  0  0  0  0
 10 35  1  0  0  0  0
 35 36  1  0  0  0  0
 24 37  1  0  0  0  0
 37 38  1  0  0  0  0
 34 39  1  0  0  0  0
 34 40  2  0  0  0  0
 37 41  1  0  0  0  0
 41 42  2  0  0  0  0
 41 43  1  0  0  0  0
 43 44  1  0  0  0  0
 44 45  1  0  0  0  0
M  END
> <From>
www.bindingDB.org

> <BindingDB Reactant_set_id>
345723

> <Ligand InChI>
InChI=1S/C32H42ClN9O3/c1-5-6-30(44)39(3)28-19-23(41-13-11-34-12-14-41)7-9-26(28)36-31-25(33)21-35-32(38-31)37-27-10-8-24(20-29(27)45-4)42-17-15-40(16-18-42)22(2)43/h7-10,19-21,34H,5-6,11-18H2,1-4H3,(H2,35,36,37,38)

> <Ligand InChI Key>
KWXUCKBJIWGXAN-UHFFFAOYSA-N

> <BindingDB MonomerID>
193467

> <BindingDB Ligand Name>
US9199944, 49

> <Target Name Assigned by Curator or DataSource>
ALK tyrosine kinase receptor

> <Target Source Organism According to Curator or DataSource>
Homo sapiens

> <Ki (nM)>


> <IC50 (nM)>
 1200

> <Kd (nM)>


> <EC50 (nM)>


> <kon (M-1-s-1)>


> <koff (s-1)>


> <pH>


> <Temp C>
25.00

> <Curation/DataSource>
US Patent

> <Article DOI>


> <PMID>


> <PubChem AID>


> <Patent Number>
US9199944

> <Authors>
Lee, K; Kim, HR; Park, CH; Lee, CO; Lee, JK; Jung, HJ; Cho, SY; Chae, CH; Choi, SU; Ha, JD

> <Institution>
KOREA RESEARCH INSTITUTE OF CHEMICAL TECHNOLOGY

> <Link to Ligand in BindingDB>
http://www.bindingdb.org/bind/chemsearch/marvin/MolStructure.jsp?monomerid=193467

> <Link to Ligand-Target Pair in BindingDB>
http://www.bindingdb.org/jsp/dbsearch/PrimarySearch_ki.jsp?energyterm=kJ/mole&tag=pol&polymerid=5809&target=ALK+tyrosine+kinase+receptor&column=ki&startPg=0&Increment=50&submit=Search

> <Link to Ligand-Target Pair in BindingDB>
http://www.bindingdb.org/jsp/dbsearch/PrimarySearch_ki.jsp?energyterm=kJ/mole&tag=r21&monomerid=193467&enzyme=ALK+tyrosine+kinase+receptor&column=ki&startPg=0&Increment=50&submit=Search

> <Ligand HET ID in PDB>


> <PDB ID(s) for Ligand-Target Complex>


> <PubChem CID>
118105681

> <PubChem SID>
317230787

> <ChEBI ID of Ligand>


> <ChEMBL ID of Ligand>


> <DrugBank ID of Ligand>


> <IUPHAR_GRAC ID of Ligand>


> <KEGG ID of Ligand>


> <ZINC ID of Ligand>


> <Number of Protein Chains in Target (>1 implies a multichain complex)>
1

> <BindingDB Target Chain Sequence>
MGAIGLLWLLPLLLSTAAVGSGMGTGQRAGSPAAGPPLQPREPLSYSRLQRKSLAVDFVVPSLFRVYARDLLLPPSSSELKAGRPEARGSLALDCAPLLRLLGPAPGVSWTAGSPAPAEARTLSRVLKGGSVRKLRRAKQLVLELGEEAILEGCVGPPGEAAVGLLQFNLSELFSWWIRQGEGRLRIRLMPEKKASEVGREGRLSAAIRASQPRLLFQIFGTGHSSLESPTNMPSPSPDYFTWNLTWIMKDSFPFLSHRSRYGLECSFDFPCELEYSPPLHDLRNQSWSWRRIPSEEASQMDLLDGPGAERSKEMPRGSFLLLNTSADSKHTILSPWMRSSSEHCTLAVSVHRHLQPSGRYIAQLLPHNEAAREILLMPTPGKHGWTVLQGRIGRPDNPFRVALEYISSGNRSLSAVDFFALKNCSEGTSPGSKMALQSSFTCWNGTVLQLGQACDFHQDCAQGEDESQMCRKLPVGFYCNFEDGFCGWTQGTLSPHTPQWQVRTLKDARFQDHQDHALLLSTTDVPASESATVTSATFPAPIKSSPCELRMSWLIRGVLRGNVSLVLVENKTGKEQGRMVWHVAAYEGLSLWQWMVLPLLDVSDRFWLQMVAWWGQGSRAIVAFDNISISLDCYLTISGEDKILQNTAPKSRNLFERNPNKELKPGENSPRQTPIFDPTVHWLFTTCGASGPHGPTQAQCNNAYQNSNLSVEVGSEGPLKGIQIWKVPATDTYSISGYGAAGGKGGKNTMMRSHGVSVLGIFNLEKDDMLYILVGQQGEDACPSTNQLIQKVCIGENNVIEEEIRVNRSVHEWAGGGGGGGGATYVFKMKDGVPVPLIIAAGGGGRAYGAKTDTFHPERLENNSSVLGLNGNSGAAGGGGGWNDNTSLLWAGKSLQEGATGGHSCPQAMKKWGWETRGGFGGGGGGCSSGGGGGGYIGGNAASNNDPEMDGEDGVSFISPLGILYTPALKVMEGHGEVNIKHYLNCSHCEVDECHMDPESHKVICFCDHGTVLAEDGVSCIVSPTPEPHLPLSLILSVVTSALVAALVLAFSGIMIVYRRKHQELQAMQMELQSPEYKLSKLRTSTIMTDYNPNYCFAGKTSSISDLKEVPRKNITLIRGLGHGAFGEVYEGQVSGMPNDPSPLQVAVKTLPEVCSEQDELDFLMEALIISKFNHQNIVRCIGVSLQSLPRFILLELMAGGDLKSFLRETRPRPSQPSSLAMLDLLHVARDIACGCQYLEENHFIHRDIAARNCLLTCPGPGRVAKIGDFGMARDIYRASYYRKGGCAMLPVKWMPPEAFMEGIFTSKTDTWSFGVLLWEIFSLGYMPYPSKSNQEVLEFVTSGGRMDPPKNCPGPVYRIMTQCWQHQPEDRPNFAIILERIEYCTQDPDVINTALPIEYGPLVEEEEKVPVRPKDPEGVPPLLVSQQAKREEERSPAAPPPLPTTSSGKAAKKPTAAEISVRVPRGPAVEGGHVNMAFSQSNPPSELHKVHGSRNKPTSLWNPTYGSWFTEKPTKKNNPIAKKEPHDRGNLGLEGSCTVPPNVATGRLPGASLLLEPSSLTANMKEVPLFRLRHFPCGNVNYGYQQQGLPLEAATAPGAGHYEDTILKSKNSMNQPGP

> <PDB ID(s) of Target Chain>
2XB7,2XBA,3AOX,5FTO,5FTQ,6E0R,6EBW,6EDL,6MX8

> <UniProt (SwissProt) Recommended Name of Target Chain>
ALK tyrosine kinase receptor

> <UniProt (SwissProt) Entry Name of Target Chain>
ALK_HUMAN

> <UniProt (SwissProt) Primary ID of Target Chain>
Q9UM73

> <UniProt (SwissProt) Secondary ID(s) of Target Chain>
Q4ZFX9,Q53QQ6,Q53RZ4,Q59FI3,Q9Y4K6

> <UniProt (SwissProt) Alternative ID(s) of Target Chain>


> <UniProt (TrEMBL) Submitted Name of Target Chain>


> <UniProt (TrEMBL) Entry Name of Target Chain>


> <UniProt (TrEMBL) Primary ID of Target Chain>


> <UniProt (TrEMBL) Secondary ID(s) of Target Chain>


> <UniProt (TrEMBL) Alternative ID(s) of Target Chain>


$$$$
00115001.cdx

Vconf v2.0 Academic SN VC001-00000579
 47 51  0  0  0  0  0  0  0  0999 V2000
   -2.3063   -1.2375    0.0000 C   0  0  0  0  0  0  0  0  0  0  0
   -2.3063   -2.0625    0.0000 C   0  0  0  0  0  0  0  0  0  0  0
   -1.5919   -2.4750    0.0000 N   0  0  0  0  0  0  0  0  0  0  0
   -0.8774   -2.0625    0.0000 C   0  0  0  0  0  0  0  0  0  0  0
   -0.8774   -1.2375    0.0000 N   0  0  0  0  0  0  0  0  0  0  0
   -1.5919   -0.8250    0.0000 C   0  0  0  0  0  0  0  0  0  0  0
   -0.1630   -2.4750    0.0000 N   0  0  0  0  0  0  0  0  0  0  0
    0.5515   -2.0625    0.0000 C   0  0  0  0  0  0  0  0  0  0  0
    0.5515   -1.2375    0.0000 C   0  0  0  0  0  0  0  0  0  0  0
    1.2660   -2.4750    0.0000 C   0  0  0  0  0  0  0  0  0  0  0
    1.9804   -2.0625    0.0000 C   0  0  0  0  0  0  0  0  0  0  0
    1.9804   -1.2375    0.0000 C   0  0  0  0  0  0  0  0  0  0  0
    1.2660   -0.8250    0.0000 C   0  0  0  0  0  0  0  0  0  0  0
    3.4093   -1.2375    0.0000 C   0  0  0  0  0  0  0  0  0  0  0
    2.6949   -0.8250    0.0000 N   0  0  0  0  0  0  0  0  0  0  0
    4.1238   -0.8250    0.0000 C   0  0  0  0  0  0  0  0  0  0  0
    4.1492    0.0151    0.0000 N   0  0  0  0  0  0  0  0  0  0  0
    3.4093    0.4126    0.0000 C   0  0  0  0  0  0  0  0  0  0  0
    2.6949    0.0000    0.0000 C   0  0  0  0  0  0  0  0  0  0  0
   -1.5919    0.0000    0.0000 N   0  0  0  0  0  0  0  0  0  0  0
   -2.3063    0.4126    0.0000 C   0  0  0  0  0  0  0  0  0  0  0
   -3.0208    0.0000    0.0000 C   0  0  0  0  0  0  0  0  0  0  0
   -3.0208   -0.8250    0.0000 Cl  0  0  0  0  0  0  0  0  0  0  0
   -2.3063    1.2375    0.0000 C   0  0  0  0  0  0  0  0  0  0  0
   -3.0208    1.6500    0.0000 C   0  0  0  0  0  0  0  0  0  0  0
   -3.7353    1.2375    0.0000 C   0  0  0  0  0  0  0  0  0  0  0
   -3.7353    0.4126    0.0000 C   0  0  0  0  0  0  0  0  0  0  0
   -4.4497    2.4750    0.0000 C   0  0  0  0  0  0  0  0  0  0  0
   -4.4497    1.6500    0.0000 N   0  0  0  0  0  0  0  0  0  0  0
   -5.1642    2.8875    0.0000 C   0  0  0  0  0  0  0  0  0  0  0
   -5.8787    2.4750    0.0000 N   0  0  0  0  0  0  0  0  0  0  0
   -5.8787    1.6500    0.0000 C   0  0  0  0  0  0  0  0  0  0  0
   -5.1642    1.2375    0.0000 C   0  0  0  0  0  0  0  0  0  0  0
   -6.5931    2.8875    0.0000 C   0  0  0  0  0  0  0  0  0  0  0
    1.2660   -3.3000    0.0000 O   0  0  0  0  0  0  0  0  0  0  0
    1.9804   -3.7125    0.0000 C   0  0  0  0  0  0  0  0  0  0  0
   -1.5919    1.6500    0.0000 O   0  0  0  0  0  0  0  0  0  0  0
   -0.8774    1.2375    0.0000 C   0  0  0  0  0  0  0  0  0  0  0
   -7.3076    2.4750    0.0000 C   0  0  0  0  0  0  0  0  0  0  0
   -6.5931    3.7125    0.0000 O   0  0  0  0  0  0  0  0  0  0  0
    5.5782    0.0154    0.0000 O   0  0  0  0  0  0  0  0  0  0  0
    6.2926    0.4280    0.0000 C   0  0  0  0  0  0  0  0  0  0  0
    7.0070    0.8406    0.0000 C   0  0  0  0  0  0  0  0  0  0  0
    6.7052   -0.2864    0.0000 C   0  0  0  0  0  0  0  0  0  0  0
    5.8799    1.1424    0.0000 C   0  0  0  0  0  0  0  0  0  0  0
    4.8636    0.4277    0.0000 C   0  0  0  0  0  0  0  0  0  0  0
    4.8635    1.2527    0.0000 O   0  0  0  0  0  0  0  0  0  0  0
  1  2  4  0  0  0  0
  2  3  4  0  0  0  0
  3  4  4  0  0  0  0
  4  5  4  0  0  0  0
  5  6  4  0  0  0  0
  6  1  4  0  0  0  0
  4  7  1  0  0  0  0
  7  8  1  0  0  0  0
  8  9  4  0  0  0  0
  8 10  4  0  0  0  0
 10 11  4  0  0  0  0
 11 12  4  0  0  0  0
 12 13  4  0  0  0  0
 13  9  4  0  0  0  0
 14 15  1  0  0  0  0
 15 12  1  0  0  0  0
 14 16  1  0  0  0  0
 16 17  1  0  0  0  0
 17 18  1  0  0  0  0
 18 19  1  0  0  0  0
 19 15  1  0  0  0  0
  6 20  1  0  0  0  0
 20 21  1  0  0  0  0
 21 22  4  0  0  0  0
 23  1  1  0  0  0  0
 21 24  4  0  0  0  0
 24 25  4  0  0  0  0
 25 26  4  0  0  0  0
 26 27  4  0  0  0  0
 27 22  4  0  0  0  0
 28 29  1  0  0  0  0
 29 26  1  0  0  0  0
 28 30  1  0  0  0  0
 30 31  1  0  0  0  0
 31 32  1  0  0  0  0
 32 33  1  0  0  0  0
 33 29  1  0  0  0  0
 31 34  1  0  0  0  0
 10 35  1  0  0  0  0
 35 36  1  0  0  0  0
 24 37  1  0  0  0  0
 37 38  1  0  0  0  0
 34 39  1  0  0  0  0
 34 40  2  0  0  0  0
 17 46  1  0  0  0  0
 41 42  1  0  0  0  0
 42 43  1  0  0  0  0
 42 44  1  0  0  0  0
 42 45  1  0  0  0  0
 46 47  2  0  0  0  0
 41 46  1  0  0  0  0
M  END
> <From>
www.bindingDB.org

> <BindingDB Reactant_set_id>
345726

> <Ligand InChI>
InChI=1S/C33H43ClN8O5/c1-22(43)39-11-13-40(14-12-39)23-7-9-26(28(19-23)45-5)36-30-25(34)21-35-31(38-30)37-27-10-8-24(20-29(27)46-6)41-15-17-42(18-16-41)32(44)47-33(2,3)4/h7-10,19-21H,11-18H2,1-6H3,(H2,35,36,37,38)

> <Ligand InChI Key>
RSKXEWJRDKURPZ-UHFFFAOYSA-N

> <BindingDB MonomerID>
193470

> <BindingDB Ligand Name>
US9199944, 52

> <Target Name Assigned by Curator or DataSource>
ALK tyrosine kinase receptor

> <Target Source Organism According to Curator or DataSource>
Homo sapiens

> <Ki (nM)>


> <IC50 (nM)>
 25

> <Kd (nM)>


> <EC50 (nM)>


> <kon (M-1-s-1)>


> <koff (s-1)>


> <pH>


> <Temp C>
25.00

> <Curation/DataSource>
US Patent

> <Article DOI>


> <PMID>


> <PubChem AID>


> <Patent Number>
US9199944

> <Authors>
Lee, K; Kim, HR; Park, CH; Lee, CO; Lee, JK; Jung, HJ; Cho, SY; Chae, CH; Choi, SU; Ha, JD

> <Institution>
KOREA RESEARCH INSTITUTE OF CHEMICAL TECHNOLOGY

> <Link to Ligand in BindingDB>
http://www.bindingdb.org/bind/chemsearch/marvin/MolStructure.jsp?monomerid=193470

> <Link to Ligand-Target Pair in BindingDB>
http://www.bindingdb.org/jsp/dbsearch/PrimarySearch_ki.jsp?energyterm=kJ/mole&tag=pol&polymerid=5809&target=ALK+tyrosine+kinase+receptor&column=ki&startPg=0&Increment=50&submit=Search

> <Link to Ligand-Target Pair in BindingDB>
http://www.bindingdb.org/jsp/dbsearch/PrimarySearch_ki.jsp?energyterm=kJ/mole&tag=r21&monomerid=193470&enzyme=ALK+tyrosine+kinase+receptor&column=ki&startPg=0&Increment=50&submit=Search

> <Ligand HET ID in PDB>


> <PDB ID(s) for Ligand-Target Complex>


> <PubChem CID>
118105721

> <PubChem SID>
317230790

> <ChEBI ID of Ligand>


> <ChEMBL ID of Ligand>


> <DrugBank ID of Ligand>


> <IUPHAR_GRAC ID of Ligand>


> <KEGG ID of Ligand>


> <ZINC ID of Ligand>


> <Number of Protein Chains in Target (>1 implies a multichain complex)>
1

> <BindingDB Target Chain Sequence>
MGAIGLLWLLPLLLSTAAVGSGMGTGQRAGSPAAGPPLQPREPLSYSRLQRKSLAVDFVVPSLFRVYARDLLLPPSSSELKAGRPEARGSLALDCAPLLRLLGPAPGVSWTAGSPAPAEARTLSRVLKGGSVRKLRRAKQLVLELGEEAILEGCVGPPGEAAVGLLQFNLSELFSWWIRQGEGRLRIRLMPEKKASEVGREGRLSAAIRASQPRLLFQIFGTGHSSLESPTNMPSPSPDYFTWNLTWIMKDSFPFLSHRSRYGLECSFDFPCELEYSPPLHDLRNQSWSWRRIPSEEASQMDLLDGPGAERSKEMPRGSFLLLNTSADSKHTILSPWMRSSSEHCTLAVSVHRHLQPSGRYIAQLLPHNEAAREILLMPTPGKHGWTVLQGRIGRPDNPFRVALEYISSGNRSLSAVDFFALKNCSEGTSPGSKMALQSSFTCWNGTVLQLGQACDFHQDCAQGEDESQMCRKLPVGFYCNFEDGFCGWTQGTLSPHTPQWQVRTLKDARFQDHQDHALLLSTTDVPASESATVTSATFPAPIKSSPCELRMSWLIRGVLRGNVSLVLVENKTGKEQGRMVWHVAAYEGLSLWQWMVLPLLDVSDRFWLQMVAWWGQGSRAIVAFDNISISLDCYLTISGEDKILQNTAPKSRNLFERNPNKELKPGENSPRQTPIFDPTVHWLFTTCGASGPHGPTQAQCNNAYQNSNLSVEVGSEGPLKGIQIWKVPATDTYSISGYGAAGGKGGKNTMMRSHGVSVLGIFNLEKDDMLYILVGQQGEDACPSTNQLIQKVCIGENNVIEEEIRVNRSVHEWAGGGGGGGGATYVFKMKDGVPVPLIIAAGGGGRAYGAKTDTFHPERLENNSSVLGLNGNSGAAGGGGGWNDNTSLLWAGKSLQEGATGGHSCPQAMKKWGWETRGGFGGGGGGCSSGGGGGGYIGGNAASNNDPEMDGEDGVSFISPLGILYTPALKVMEGHGEVNIKHYLNCSHCEVDECHMDPESHKVICFCDHGTVLAEDGVSCIVSPTPEPHLPLSLILSVVTSALVAALVLAFSGIMIVYRRKHQELQAMQMELQSPEYKLSKLRTSTIMTDYNPNYCFAGKTSSISDLKEVPRKNITLIRGLGHGAFGEVYEGQVSGMPNDPSPLQVAVKTLPEVCSEQDELDFLMEALIISKFNHQNIVRCIGVSLQSLPRFILLELMAGGDLKSFLRETRPRPSQPSSLAMLDLLHVARDIACGCQYLEENHFIHRDIAARNCLLTCPGPGRVAKIGDFGMARDIYRASYYRKGGCAMLPVKWMPPEAFMEGIFTSKTDTWSFGVLLWEIFSLGYMPYPSKSNQEVLEFVTSGGRMDPPKNCPGPVYRIMTQCWQHQPEDRPNFAIILERIEYCTQDPDVINTALPIEYGPLVEEEEKVPVRPKDPEGVPPLLVSQQAKREEERSPAAPPPLPTTSSGKAAKKPTAAEISVRVPRGPAVEGGHVNMAFSQSNPPSELHKVHGSRNKPTSLWNPTYGSWFTEKPTKKNNPIAKKEPHDRGNLGLEGSCTVPPNVATGRLPGASLLLEPSSLTANMKEVPLFRLRHFPCGNVNYGYQQQGLPLEAATAPGAGHYEDTILKSKNSMNQPGP

> <PDB ID(s) of Target Chain>
2XB7,2XBA,3AOX,5FTO,5FTQ,6E0R,6EBW,6EDL,6MX8

> <UniProt (SwissProt) Recommended Name of Target Chain>
ALK tyrosine kinase receptor

> <UniProt (SwissProt) Entry Name of Target Chain>
ALK_HUMAN

> <UniProt (SwissProt) Primary ID of Target Chain>
Q9UM73

> <UniProt (SwissProt) Secondary ID(s) of Target Chain>
Q4ZFX9,Q53QQ6,Q53RZ4,Q59FI3,Q9Y4K6

> <UniProt (SwissProt) Alternative ID(s) of Target Chain>


> <UniProt (TrEMBL) Submitted Name of Target Chain>


> <UniProt (TrEMBL) Entry Name of Target Chain>


> <UniProt (TrEMBL) Primary ID of Target Chain>


> <UniProt (TrEMBL) Secondary ID(s) of Target Chain>


> <UniProt (TrEMBL) Alternative ID(s) of Target Chain>


$$$$
00117001.cdx

Vconf v2.0 Academic SN VC001-00000579
 48 52  0  0  0  0  0  0  0  0999 V2000
   -1.4289   -1.2375    0.0000 C   0  0  0  0  0  0  0  0  0  0  0
   -1.4289   -2.0624    0.0000 C   0  0  0  0  0  0  0  0  0  0  0
   -0.7145   -2.4750    0.0000 N   0  0  0  0  0  0  0  0  0  0  0
    0.0000   -2.0624    0.0000 C   0  0  0  0  0  0  0  0  0  0  0
    0.0000   -1.2375    0.0000 N   0  0  0  0  0  0  0  0  0  0  0
   -0.7145   -0.8249    0.0000 C   0  0  0  0  0  0  0  0  0  0  0
    0.7145   -2.4750    0.0000 N   0  0  0  0  0  0  0  0  0  0  0
    1.4289   -2.0624    0.0000 C   0  0  0  0  0  0  0  0  0  0  0
    1.4289   -1.2375    0.0000 C   0  0  0  0  0  0  0  0  0  0  0
    2.1434   -2.4750    0.0000 C   0  0  0  0  0  0  0  0  0  0  0
    2.8578   -2.0624    0.0000 C   0  0  0  0  0  0  0  0  0  0  0
    2.8578   -1.2375    0.0000 C   0  0  0  0  0  0  0  0  0  0  0
    2.1434   -0.8249    0.0000 C   0  0  0  0  0  0  0  0  0  0  0
    4.2867   -1.2375    0.0000 C   0  0  0  0  0  0  0  0  0  0  0
    3.5723   -0.8249    0.0000 N   0  0  0  0  0  0  0  0  0  0  0
    5.0012   -0.8249    0.0000 C   0  0  0  0  0  0  0  0  0  0  0
    5.0012    0.0000    0.0000 N   0  0  0  0  0  0  0  0  0  0  0
    4.2867    0.4125    0.0000 C   0  0  0  0  0  0  0  0  0  0  0
    3.5723    0.0000    0.0000 C   0  0  0  0  0  0  0  0  0  0  0
   -0.7145    0.0000    0.0000 N   0  0  0  0  0  0  0  0  0  0  0
   -1.4289    0.4125    0.0000 C   0  0  0  0  0  0  0  0  0  0  0
   -2.1434    0.0000    0.0000 C   0  0  0  0  0  0  0  0  0  0  0
   -2.1434   -0.8249    0.0000 Cl  0  0  0  0  0  0  0  0  0  0  0
   -1.4289    1.2375    0.0000 C   0  0  0  0  0  0  0  0  0  0  0
   -2.1434    1.6500    0.0000 C   0  0  0  0  0  0  0  0  0  0  0
   -2.8578    1.2375    0.0000 C   0  0  0  0  0  0  0  0  0  0  0
   -2.8578    0.4125    0.0000 C   0  0  0  0  0  0  0  0  0  0  0
   -3.5723    2.4750    0.0000 C   0  0  0  0  0  0  0  0  0  0  0
   -3.5723    1.6500    0.0000 N   0  0  0  0  0  0  0  0  0  0  0
   -4.2867    2.8874    0.0000 C   0  0  0  0  0  0  0  0  0  0  0
   -5.0012    2.4750    0.0000 N   0  0  0  0  0  0  0  0  0  0  0
   -5.0012    1.6500    0.0000 C   0  0  0  0  0  0  0  0  0  0  0
   -4.2867    1.2375    0.0000 C   0  0  0  0  0  0  0  0  0  0  0
   -5.7156    2.8874    0.0000 C   0  0  0  0  0  0  0  0  0  0  0
    5.7156    0.4125    0.0000 C   0  0  0  0  0  0  0  0  0  0  0
    6.4301    0.0000    0.0000 C   0  0  0  0  0  0  0  0  0  0  0
    5.7156    1.2375    0.0000 O   0  0  0  0  0  0  0  0  0  0  0
    2.1434   -3.2999    0.0000 O   0  0  0  0  0  0  0  0  0  0  0
    2.8578   -3.7124    0.0000 C   0  0  0  0  0  0  0  0  0  0  0
   -0.7145    1.6500    0.0000 N   0  0  0  0  0  0  0  0  0  0  0
    0.0000    1.2375    0.0000 C   0  0  0  0  0  0  0  0  0  0  0
   -6.4301    2.4750    0.0000 C   0  0  0  0  0  0  0  0  0  0  0
   -5.7156    3.7124    0.0000 O   0  0  0  0  0  0  0  0  0  0  0
   -0.7145    2.4750    0.0000 C   0  0  0  0  0  0  0  0  0  0  0
   -1.4289    2.8874    0.0000 O   0  0  0  0  0  0  0  0  0  0  0
    0.0000    2.8874    0.0000 C   0  0  0  0  0  0  0  0  0  0  0
    0.7145    2.4750    0.0000 C   0  0  0  0  0  0  0  0  0  0  0
    1.4289    2.8874    0.0000 C   0  0  0  0  0  0  0  0  0  0  0
  1  2  4  0  0  0  0
  2  3  4  0  0  0  0
  3  4  4  0  0  0  0
  4  5  4  0  0  0  0
  5  6  4  0  0  0  0
  6  1  4  0  0  0  0
  4  7  1  0  0  0  0
  7  8  1  0  0  0  0
  8  9  4  0  0  0  0
  8 10  4  0  0  0  0
 10 11  4  0  0  0  0
 11 12  4  0  0  0  0
 12 13  4  0  0  0  0
 13  9  4  0  0  0  0
 14 15  1  0  0  0  0
 15 12  1  0  0  0  0
 14 16  1  0  0  0  0
 16 17  1  0  0  0  0
 17 18  1  0  0  0  0
 18 19  1  0  0  0  0
 19 15  1  0  0  0  0
  6 20  1  0  0  0  0
 20 21  1  0  0  0  0
 21 22  4  0  0  0  0
 23  1  1  0  0  0  0
 21 24  4  0  0  0  0
 24 25  4  0  0  0  0
 25 26  4  0  0  0  0
 26 27  4  0  0  0  0
 27 22  4  0  0  0  0
 28 29  1  0  0  0  0
 29 26  1  0  0  0  0
 28 30  1  0  0  0  0
 30 31  1  0  0  0  0
 31 32  1  0  0  0  0
 32 33  1  0  0  0  0
 33 29  1  0  0  0  0
 31 34  1  0  0  0  0
 17 35  1  0  0  0  0
 35 36  1  0  0  0  0
 35 37  2  0  0  0  0
 10 38  1  0  0  0  0
 38 39  1  0  0  0  0
 24 40  1  0  0  0  0
 40 41  1  0  0  0  0
 34 42  1  0  0  0  0
 34 43  2  0  0  0  0
 40 44  1  0  0  0  0
 44 45  2  0  0  0  0
 44 46  1  0  0  0  0
 46 47  1  0  0  0  0
 47 48  1  0  0  0  0
M  END
> <From>
www.bindingDB.org

> <BindingDB Reactant_set_id>
345728

> <Ligand InChI>
InChI=1S/C34H44ClN9O4/c1-6-7-32(47)40(4)30-20-25(43-16-12-41(13-17-43)23(2)45)8-10-28(30)37-33-27(35)22-36-34(39-33)38-29-11-9-26(21-31(29)48-5)44-18-14-42(15-19-44)24(3)46/h8-11,20-22H,6-7,12-19H2,1-5H3,(H2,36,37,38,39)

> <Ligand InChI Key>
BMBYQNHMKKYFTK-UHFFFAOYSA-N

> <BindingDB MonomerID>
193472

> <BindingDB Ligand Name>
US9199944, 54

> <Target Name Assigned by Curator or DataSource>
ALK tyrosine kinase receptor

> <Target Source Organism According to Curator or DataSource>
Homo sapiens

> <Ki (nM)>


> <IC50 (nM)>
 4500

> <Kd (nM)>


> <EC50 (nM)>


> <kon (M-1-s-1)>


> <koff (s-1)>


> <pH>


> <Temp C>
25.00

> <Curation/DataSource>
US Patent

> <Article DOI>


> <PMID>


> <PubChem AID>


> <Patent Number>
US9199944

> <Authors>
Lee, K; Kim, HR; Park, CH; Lee, CO; Lee, JK; Jung, HJ; Cho, SY; Chae, CH; Choi, SU; Ha, JD

> <Institution>
KOREA RESEARCH INSTITUTE OF CHEMICAL TECHNOLOGY

> <Link to Ligand in BindingDB>
http://www.bindingdb.org/bind/chemsearch/marvin/MolStructure.jsp?monomerid=193472

> <Link to Ligand-Target Pair in BindingDB>
http://www.bindingdb.org/jsp/dbsearch/PrimarySearch_ki.jsp?energyterm=kJ/mole&tag=pol&polymerid=5809&target=ALK+tyrosine+kinase+receptor&column=ki&startPg=0&Increment=50&submit=Search

> <Link to Ligand-Target Pair in BindingDB>
http://www.bindingdb.org/jsp/dbsearch/PrimarySearch_ki.jsp?energyterm=kJ/mole&tag=r21&monomerid=193472&enzyme=ALK+tyrosine+kinase+receptor&column=ki&startPg=0&Increment=50&submit=Search

> <Ligand HET ID in PDB>


> <PDB ID(s) for Ligand-Target Complex>


> <PubChem CID>
118105666

> <PubChem SID>
317230792

> <ChEBI ID of Ligand>


> <ChEMBL ID of Ligand>


> <DrugBank ID of Ligand>


> <IUPHAR_GRAC ID of Ligand>


> <KEGG ID of Ligand>


> <ZINC ID of Ligand>


> <Number of Protein Chains in Target (>1 implies a multichain complex)>
1

> <BindingDB Target Chain Sequence>
MGAIGLLWLLPLLLSTAAVGSGMGTGQRAGSPAAGPPLQPREPLSYSRLQRKSLAVDFVVPSLFRVYARDLLLPPSSSELKAGRPEARGSLALDCAPLLRLLGPAPGVSWTAGSPAPAEARTLSRVLKGGSVRKLRRAKQLVLELGEEAILEGCVGPPGEAAVGLLQFNLSELFSWWIRQGEGRLRIRLMPEKKASEVGREGRLSAAIRASQPRLLFQIFGTGHSSLESPTNMPSPSPDYFTWNLTWIMKDSFPFLSHRSRYGLECSFDFPCELEYSPPLHDLRNQSWSWRRIPSEEASQMDLLDGPGAERSKEMPRGSFLLLNTSADSKHTILSPWMRSSSEHCTLAVSVHRHLQPSGRYIAQLLPHNEAAREILLMPTPGKHGWTVLQGRIGRPDNPFRVALEYISSGNRSLSAVDFFALKNCSEGTSPGSKMALQSSFTCWNGTVLQLGQACDFHQDCAQGEDESQMCRKLPVGFYCNFEDGFCGWTQGTLSPHTPQWQVRTLKDARFQDHQDHALLLSTTDVPASESATVTSATFPAPIKSSPCELRMSWLIRGVLRGNVSLVLVENKTGKEQGRMVWHVAAYEGLSLWQWMVLPLLDVSDRFWLQMVAWWGQGSRAIVAFDNISISLDCYLTISGEDKILQNTAPKSRNLFERNPNKELKPGENSPRQTPIFDPTVHWLFTTCGASGPHGPTQAQCNNAYQNSNLSVEVGSEGPLKGIQIWKVPATDTYSISGYGAAGGKGGKNTMMRSHGVSVLGIFNLEKDDMLYILVGQQGEDACPSTNQLIQKVCIGENNVIEEEIRVNRSVHEWAGGGGGGGGATYVFKMKDGVPVPLIIAAGGGGRAYGAKTDTFHPERLENNSSVLGLNGNSGAAGGGGGWNDNTSLLWAGKSLQEGATGGHSCPQAMKKWGWETRGGFGGGGGGCSSGGGGGGYIGGNAASNNDPEMDGEDGVSFISPLGILYTPALKVMEGHGEVNIKHYLNCSHCEVDECHMDPESHKVICFCDHGTVLAEDGVSCIVSPTPEPHLPLSLILSVVTSALVAALVLAFSGIMIVYRRKHQELQAMQMELQSPEYKLSKLRTSTIMTDYNPNYCFAGKTSSISDLKEVPRKNITLIRGLGHGAFGEVYEGQVSGMPNDPSPLQVAVKTLPEVCSEQDELDFLMEALIISKFNHQNIVRCIGVSLQSLPRFILLELMAGGDLKSFLRETRPRPSQPSSLAMLDLLHVARDIACGCQYLEENHFIHRDIAARNCLLTCPGPGRVAKIGDFGMARDIYRASYYRKGGCAMLPVKWMPPEAFMEGIFTSKTDTWSFGVLLWEIFSLGYMPYPSKSNQEVLEFVTSGGRMDPPKNCPGPVYRIMTQCWQHQPEDRPNFAIILERIEYCTQDPDVINTALPIEYGPLVEEEEKVPVRPKDPEGVPPLLVSQQAKREEERSPAAPPPLPTTSSGKAAKKPTAAEISVRVPRGPAVEGGHVNMAFSQSNPPSELHKVHGSRNKPTSLWNPTYGSWFTEKPTKKNNPIAKKEPHDRGNLGLEGSCTVPPNVATGRLPGASLLLEPSSLTANMKEVPLFRLRHFPCGNVNYGYQQQGLPLEAATAPGAGHYEDTILKSKNSMNQPGP

> <PDB ID(s) of Target Chain>
2XB7,2XBA,3AOX,5FTO,5FTQ,6E0R,6EBW,6EDL,6MX8

> <UniProt (SwissProt) Recommended Name of Target Chain>
ALK tyrosine kinase receptor

> <UniProt (SwissProt) Entry Name of Target Chain>
ALK_HUMAN

> <UniProt (SwissProt) Primary ID of Target Chain>
Q9UM73

> <UniProt (SwissProt) Secondary ID(s) of Target Chain>
Q4ZFX9,Q53QQ6,Q53RZ4,Q59FI3,Q9Y4K6

> <UniProt (SwissProt) Alternative ID(s) of Target Chain>


> <UniProt (TrEMBL) Submitted Name of Target Chain>


> <UniProt (TrEMBL) Entry Name of Target Chain>


> <UniProt (TrEMBL) Primary ID of Target Chain>


> <UniProt (TrEMBL) Secondary ID(s) of Target Chain>


> <UniProt (TrEMBL) Alternative ID(s) of Target Chain>


$$$$
00137001.cdx

Vconf v2.0 Academic SN VC001-00000579
 42 46  0  0  0  0  0  0  0  0999 V2000
   -5.0013    2.3989    0.0000 N   0  0  0  0  0  0  0  0  0  0  0
   -5.0013    1.5739    0.0000 C   0  0  0  0  0  0  0  0  0  0  0
   -4.2868    1.1615    0.0000 C   0  0  0  0  0  0  0  0  0  0  0
   -3.5724    1.5739    0.0000 N   0  0  0  0  0  0  0  0  0  0  0
   -3.5724    2.3989    0.0000 C   0  0  0  0  0  0  0  0  0  0  0
   -4.2868    2.8115    0.0000 C   0  0  0  0  0  0  0  0  0  0  0
   -5.7158    2.8115    0.0000 C   0  0  0  0  0  0  0  0  0  0  0
   -6.4303    2.3989    0.0000 C   0  0  0  0  0  0  0  0  0  0  0
   -2.8579    1.1615    0.0000 C   0  0  0  0  0  0  0  0  0  0  0
   -2.8579    0.3365    0.0000 C   0  0  0  0  0  0  0  0  0  0  0
   -2.1434   -0.0761    0.0000 C   0  0  0  0  0  0  0  0  0  0  0
   -1.4290    0.3365    0.0000 C   0  0  0  0  0  0  0  0  0  0  0
   -1.4290    1.1615    0.0000 C   0  0  0  0  0  0  0  0  0  0  0
   -2.1434    1.5739    0.0000 C   0  0  0  0  0  0  0  0  0  0  0
   -0.7144    1.5739    0.0000 Cl  0  0  0  0  0  0  0  0  0  0  0
   -0.7144   -0.0761    0.0000 N   0  0  0  0  0  0  0  0  0  0  0
   -0.7144   -0.9011    0.0000 C   0  0  0  0  0  0  0  0  0  0  0
   -1.4290   -1.3135    0.0000 C   0  0  0  0  0  0  0  0  0  0  0
   -1.4290   -2.1386    0.0000 C   0  0  0  0  0  0  0  0  0  0  0
   -0.7144   -2.5511    0.0000 N   0  0  0  0  0  0  0  0  0  0  0
    0.0000   -2.1386    0.0000 C   0  0  0  0  0  0  0  0  0  0  0
    0.0000   -1.3135    0.0000 N   0  0  0  0  0  0  0  0  0  0  0
   -2.1434   -0.9011    0.0000 Cl  0  0  0  0  0  0  0  0  0  0  0
    0.7144   -2.5511    0.0000 N   0  0  0  0  0  0  0  0  0  0  0
    1.4290   -2.1386    0.0000 C   0  0  0  0  0  0  0  0  0  0  0
    2.1434   -2.5511    0.0000 C   0  0  0  0  0  0  0  0  0  0  0
    2.8579   -2.1386    0.0000 C   0  0  0  0  0  0  0  0  0  0  0
    2.8579   -1.3135    0.0000 C   0  0  0  0  0  0  0  0  0  0  0
    2.1434   -0.9011    0.0000 C   0  0  0  0  0  0  0  0  0  0  0
    1.4290   -1.3135    0.0000 C   0  0  0  0  0  0  0  0  0  0  0
    2.1434   -3.3760    0.0000 O   0  0  0  0  0  0  0  0  0  0  0
    2.8579   -3.7886    0.0000 C   0  0  0  0  0  0  0  0  0  0  0
    3.5724   -0.0761    0.0000 C   0  0  0  0  0  0  0  0  0  0  0
    3.5724   -0.9011    0.0000 N   0  0  0  0  0  0  0  0  0  0  0
    4.2868   -1.3135    0.0000 C   0  0  0  0  0  0  0  0  0  0  0
    5.0013   -0.9011    0.0000 C   0  0  0  0  0  0  0  0  0  0  0
    5.0013   -0.0761    0.0000 N   0  0  0  0  0  0  0  0  0  0  0
    4.2868    0.3365    0.0000 C   0  0  0  0  0  0  0  0  0  0  0
    5.7158    0.3365    0.0000 C   0  0  0  0  0  0  0  0  0  0  0
    6.4303   -0.0761    0.0000 C   0  0  0  0  0  0  0  0  0  0  0
    5.7158    1.1615    0.0000 O   0  0  0  0  0  0  0  0  0  0  0
   -5.7158    3.7886    0.0000 O   0  0  0  0  0  0  0  0  0  0  0
  1  2  1  0  0  0  0
  2  3  1  0  0  0  0
  3  4  1  0  0  0  0
  4  5  1  0  0  0  0
  5  6  1  0  0  0  0
  6  1  1  0  0  0  0
  1  7  1  0  0  0  0
  7  8  1  0  0  0  0
  4  9  1  0  0  0  0
  9 10  4  0  0  0  0
 10 11  4  0  0  0  0
 11 12  4  0  0  0  0
 12 13  4  0  0  0  0
 13 14  4  0  0  0  0
 14  9  4  0  0  0  0
 13 15  1  0  0  0  0
 12 16  1  0  0  0  0
 16 17  1  0  0  0  0
 17 18  4  0  0  0  0
 18 19  4  0  0  0  0
 19 20  4  0  0  0  0
 20 21  4  0  0  0  0
 21 22  4  0  0  0  0
 22 17  4  0  0  0  0
 18 23  1  0  0  0  0
 21 24  1  0  0  0  0
 24 25  1  0  0  0  0
 25 26  4  0  0  0  0
 26 27  4  0  0  0  0
 27 28  4  0  0  0  0
 28 29  4  0  0  0  0
 29 30  4  0  0  0  0
 30 25  4  0  0  0  0
 26 31  1  0  0  0  0
 31 32  1  0  0  0  0
 28 34  1  0  0  0  0
 33 34  1  0  0  0  0
 34 35  1  0  0  0  0
 35 36  1  0  0  0  0
 36 37  1  0  0  0  0
 37 38  1  0  0  0  0
 38 33  1  0  0  0  0
 37 39  1  0  0  0  0
 39 40  1  0  0  0  0
 39 41  2  0  0  0  0
  7 42  2  0  0  0  0
M  END
> <From>
www.bindingDB.org

> <BindingDB Reactant_set_id>
345748

> <Ligand InChI>
InChI=1S/C29H34Cl2N8O3/c1-19(40)36-8-12-38(13-9-36)21-4-6-25(23(30)16-21)33-28-24(31)18-32-29(35-28)34-26-7-5-22(17-27(26)42-3)39-14-10-37(11-15-39)20(2)41/h4-7,16-18H,8-15H2,1-3H3,(H2,32,33,34,35)

> <Ligand InChI Key>
GTOSARLOOHHDMV-UHFFFAOYSA-N

> <BindingDB MonomerID>
193492

> <BindingDB Ligand Name>
US9199944, 74

> <Target Name Assigned by Curator or DataSource>
ALK tyrosine kinase receptor

> <Target Source Organism According to Curator or DataSource>
Homo sapiens

> <Ki (nM)>


> <IC50 (nM)>
 7

> <Kd (nM)>


> <EC50 (nM)>


> <kon (M-1-s-1)>


> <koff (s-1)>


> <pH>


> <Temp C>
25.00

> <Curation/DataSource>
US Patent

> <Article DOI>


> <PMID>


> <PubChem AID>


> <Patent Number>
US9199944

> <Authors>
Lee, K; Kim, HR; Park, CH; Lee, CO; Lee, JK; Jung, HJ; Cho, SY; Chae, CH; Choi, SU; Ha, JD

> <Institution>
KOREA RESEARCH INSTITUTE OF CHEMICAL TECHNOLOGY

> <Link to Ligand in BindingDB>
http://www.bindingdb.org/bind/chemsearch/marvin/MolStructure.jsp?monomerid=193492

> <Link to Ligand-Target Pair in BindingDB>
http://www.bindingdb.org/jsp/dbsearch/PrimarySearch_ki.jsp?energyterm=kJ/mole&tag=pol&polymerid=5809&target=ALK+tyrosine+kinase+receptor&column=ki&startPg=0&Increment=50&submit=Search

> <Link to Ligand-Target Pair in BindingDB>
http://www.bindingdb.org/jsp/dbsearch/PrimarySearch_ki.jsp?energyterm=kJ/mole&tag=r21&monomerid=193492&enzyme=ALK+tyrosine+kinase+receptor&column=ki&startPg=0&Increment=50&submit=Search

> <Ligand HET ID in PDB>


> <PDB ID(s) for Ligand-Target Complex>


> <PubChem CID>
72546963

> <PubChem SID>
317230812

> <ChEBI ID of Ligand>


> <ChEMBL ID of Ligand>


> <DrugBank ID of Ligand>


> <IUPHAR_GRAC ID of Ligand>


> <KEGG ID of Ligand>


> <ZINC ID of Ligand>


> <Number of Protein Chains in Target (>1 implies a multichain complex)>
1

> <BindingDB Target Chain Sequence>
MGAIGLLWLLPLLLSTAAVGSGMGTGQRAGSPAAGPPLQPREPLSYSRLQRKSLAVDFVVPSLFRVYARDLLLPPSSSELKAGRPEARGSLALDCAPLLRLLGPAPGVSWTAGSPAPAEARTLSRVLKGGSVRKLRRAKQLVLELGEEAILEGCVGPPGEAAVGLLQFNLSELFSWWIRQGEGRLRIRLMPEKKASEVGREGRLSAAIRASQPRLLFQIFGTGHSSLESPTNMPSPSPDYFTWNLTWIMKDSFPFLSHRSRYGLECSFDFPCELEYSPPLHDLRNQSWSWRRIPSEEASQMDLLDGPGAERSKEMPRGSFLLLNTSADSKHTILSPWMRSSSEHCTLAVSVHRHLQPSGRYIAQLLPHNEAAREILLMPTPGKHGWTVLQGRIGRPDNPFRVALEYISSGNRSLSAVDFFALKNCSEGTSPGSKMALQSSFTCWNGTVLQLGQACDFHQDCAQGEDESQMCRKLPVGFYCNFEDGFCGWTQGTLSPHTPQWQVRTLKDARFQDHQDHALLLSTTDVPASESATVTSATFPAPIKSSPCELRMSWLIRGVLRGNVSLVLVENKTGKEQGRMVWHVAAYEGLSLWQWMVLPLLDVSDRFWLQMVAWWGQGSRAIVAFDNISISLDCYLTISGEDKILQNTAPKSRNLFERNPNKELKPGENSPRQTPIFDPTVHWLFTTCGASGPHGPTQAQCNNAYQNSNLSVEVGSEGPLKGIQIWKVPATDTYSISGYGAAGGKGGKNTMMRSHGVSVLGIFNLEKDDMLYILVGQQGEDACPSTNQLIQKVCIGENNVIEEEIRVNRSVHEWAGGGGGGGGATYVFKMKDGVPVPLIIAAGGGGRAYGAKTDTFHPERLENNSSVLGLNGNSGAAGGGGGWNDNTSLLWAGKSLQEGATGGHSCPQAMKKWGWETRGGFGGGGGGCSSGGGGGGYIGGNAASNNDPEMDGEDGVSFISPLGILYTPALKVMEGHGEVNIKHYLNCSHCEVDECHMDPESHKVICFCDHGTVLAEDGVSCIVSPTPEPHLPLSLILSVVTSALVAALVLAFSGIMIVYRRKHQELQAMQMELQSPEYKLSKLRTSTIMTDYNPNYCFAGKTSSISDLKEVPRKNITLIRGLGHGAFGEVYEGQVSGMPNDPSPLQVAVKTLPEVCSEQDELDFLMEALIISKFNHQNIVRCIGVSLQSLPRFILLELMAGGDLKSFLRETRPRPSQPSSLAMLDLLHVARDIACGCQYLEENHFIHRDIAARNCLLTCPGPGRVAKIGDFGMARDIYRASYYRKGGCAMLPVKWMPPEAFMEGIFTSKTDTWSFGVLLWEIFSLGYMPYPSKSNQEVLEFVTSGGRMDPPKNCPGPVYRIMTQCWQHQPEDRPNFAIILERIEYCTQDPDVINTALPIEYGPLVEEEEKVPVRPKDPEGVPPLLVSQQAKREEERSPAAPPPLPTTSSGKAAKKPTAAEISVRVPRGPAVEGGHVNMAFSQSNPPSELHKVHGSRNKPTSLWNPTYGSWFTEKPTKKNNPIAKKEPHDRGNLGLEGSCTVPPNVATGRLPGASLLLEPSSLTANMKEVPLFRLRHFPCGNVNYGYQQQGLPLEAATAPGAGHYEDTILKSKNSMNQPGP

> <PDB ID(s) of Target Chain>
2XB7,2XBA,3AOX,5FTO,5FTQ,6E0R,6EBW,6EDL,6MX8

> <UniProt (SwissProt) Recommended Name of Target Chain>
ALK tyrosine kinase receptor

> <UniProt (SwissProt) Entry Name of Target Chain>
ALK_HUMAN

> <UniProt (SwissProt) Primary ID of Target Chain>
Q9UM73

> <UniProt (SwissProt) Secondary ID(s) of Target Chain>
Q4ZFX9,Q53QQ6,Q53RZ4,Q59FI3,Q9Y4K6

> <UniProt (SwissProt) Alternative ID(s) of Target Chain>


> <UniProt (TrEMBL) Submitted Name of Target Chain>


> <UniProt (TrEMBL) Entry Name of Target Chain>


> <UniProt (TrEMBL) Primary ID of Target Chain>


> <UniProt (TrEMBL) Secondary ID(s) of Target Chain>


> <UniProt (TrEMBL) Alternative ID(s) of Target Chain>


$$$$
00139001.cdx

Vconf v2.0 Academic SN VC001-00000579
 48 53  0  0  0  0  0  0  0  0999 V2000
   -5.7158    3.7126    0.0000 O   0  0  0  0  0  0  0  0  0  0  0
   -5.7158    2.8875    0.0000 C   0  0  0  0  0  0  0  0  0  0  0
   -5.0013    2.4750    0.0000 N   0  0  0  0  0  0  0  0  0  0  0
   -6.4303    2.4750    0.0000 C   0  0  0  0  0  0  0  0  0  0  0
   -5.0013    1.6500    0.0000 C   0  0  0  0  0  0  0  0  0  0  0
   -4.2869    1.2375    0.0000 C   0  0  0  0  0  0  0  0  0  0  0
   -3.5723    1.6500    0.0000 N   0  0  0  0  0  0  0  0  0  0  0
   -3.5723    2.4750    0.0000 C   0  0  0  0  0  0  0  0  0  0  0
   -4.2869    2.8875    0.0000 C   0  0  0  0  0  0  0  0  0  0  0
   -2.8579    1.2375    0.0000 C   0  0  0  0  0  0  0  0  0  0  0
   -2.8579    0.4125    0.0000 C   0  0  0  0  0  0  0  0  0  0  0
   -2.1434    0.0000    0.0000 C   0  0  0  0  0  0  0  0  0  0  0
   -1.4290    0.4125    0.0000 C   0  0  0  0  0  0  0  0  0  0  0
   -1.4290    1.2375    0.0000 C   0  0  0  0  0  0  0  0  0  0  0
   -2.1434    1.6500    0.0000 C   0  0  0  0  0  0  0  0  0  0  0
   -0.7145    1.6500    0.0000 O   0  0  0  0  0  0  0  0  0  0  0
   -0.7144    0.0000    0.0000 N   0  0  0  0  0  0  0  0  0  0  0
   -0.7144   -0.8250    0.0000 C   0  0  0  0  0  0  0  0  0  0  0
   -1.4290   -1.2375    0.0000 C   0  0  0  0  0  0  0  0  0  0  0
   -1.4290   -2.0625    0.0000 C   0  0  0  0  0  0  0  0  0  0  0
   -0.7144   -2.4750    0.0000 N   0  0  0  0  0  0  0  0  0  0  0
    0.0000   -2.0625    0.0000 C   0  0  0  0  0  0  0  0  0  0  0
    0.0000   -1.2375    0.0000 N   0  0  0  0  0  0  0  0  0  0  0
   -2.1434   -0.8250    0.0000 Cl  0  0  0  0  0  0  0  0  0  0  0
    0.7144   -2.4750    0.0000 N   0  0  0  0  0  0  0  0  0  0  0
    1.4290   -2.0625    0.0000 C   0  0  0  0  0  0  0  0  0  0  0
    2.1434   -2.4750    0.0000 C   0  0  0  0  0  0  0  0  0  0  0
    2.8579   -2.0625    0.0000 C   0  0  0  0  0  0  0  0  0  0  0
    2.8579   -1.2375    0.0000 C   0  0  0  0  0  0  0  0  0  0  0
    2.1434   -0.8250    0.0000 C   0  0  0  0  0  0  0  0  0  0  0
    1.4290   -1.2375    0.0000 C   0  0  0  0  0  0  0  0  0  0  0
    3.5723   -0.8250    0.0000 N   0  0  0  0  0  0  0  0  0  0  0
    4.2869   -1.2375    0.0000 C   0  0  0  0  0  0  0  0  0  0  0
    5.0013   -0.8250    0.0000 C   0  0  0  0  0  0  0  0  0  0  0
    5.0013    0.0000    0.0000 N   0  0  0  0  0  0  0  0  0  0  0
    4.2869    0.4125    0.0000 C   0  0  0  0  0  0  0  0  0  0  0
    3.5723    0.0000    0.0000 C   0  0  0  0  0  0  0  0  0  0  0
    5.7158    0.4125    0.0000 C   0  0  0  0  0  0  0  0  0  0  0
    6.4303    0.0000    0.0000 C   0  0  0  0  0  0  0  0  0  0  0
    5.7158    1.2375    0.0000 O   0  0  0  0  0  0  0  0  0  0  0
    2.1434   -3.3000    0.0000 O   0  0  0  0  0  0  0  0  0  0  0
    2.8579   -3.7126    0.0000 C   0  0  0  0  0  0  0  0  0  0  0
   -0.7146    2.4750    0.0000 C   0  0  0  0  0  0  0  0  0  0  0
   -1.4291    2.8875    0.0000 C   0  0  0  0  0  0  0  0  0  0  0
   -1.4291    3.7125    0.0000 C   0  0  0  0  0  0  0  0  0  0  0
   -0.7146    4.1250    0.0000 C   0  0  0  0  0  0  0  0  0  0  0
   -0.0001    3.7126    0.0000 C   0  0  0  0  0  0  0  0  0  0  0
   -0.0001    2.8876    0.0000 C   0  0  0  0  0  0  0  0  0  0  0
  1  2  2  0  0  0  0
  2  3  1  0  0  0  0
  2  4  1  0  0  0  0
  3  5  1  0  0  0  0
  5  6  1  0  0  0  0
  6  7  1  0  0  0  0
  7  8  1  0  0  0  0
  8  9  1  0  0  0  0
  9  3  1  0  0  0  0
  7 10  1  0  0  0  0
 10 11  4  0  0  0  0
 11 12  4  0  0  0  0
 12 13  4  0  0  0  0
 13 14  4  0  0  0  0
 14 15  4  0  0  0  0
 15 10  4  0  0  0  0
 14 16  1  0  0  0  0
 13 17  1  0  0  0  0
 17 18  1  0  0  0  0
 18 19  4  0  0  0  0
 19 20  4  0  0  0  0
 20 21  4  0  0  0  0
 21 22  4  0  0  0  0
 22 23  4  0  0  0  0
 23 18  4  0  0  0  0
 19 24  1  0  0  0  0
 22 25  1  0  0  0  0
 25 26  1  0  0  0  0
 26 27  4  0  0  0  0
 27 28  4  0  0  0  0
 28 29  4  0  0  0  0
 29 30  4  0  0  0  0
 30 31  4  0  0  0  0
 31 26  4  0  0  0  0
 29 32  1  0  0  0  0
 32 33  1  0  0  0  0
 33 34  1  0  0  0  0
 34 35  1  0  0  0  0
 35 36  1  0  0  0  0
 36 37  1  0  0  0  0
 37 32  1  0  0  0  0
 35 38  1  0  0  0  0
 38 39  1  0  0  0  0
 38 40  2  0  0  0  0
 27 41  1  0  0  0  0
 41 42  1  0  0  0  0
 16 43  1  0  0  0  0
 43 44  4  0  0  0  0
 44 45  4  0  0  0  0
 45 46  4  0  0  0  0
 46 47  4  0  0  0  0
 47 48  4  0  0  0  0
 43 48  4  0  0  0  0
M  END
> <From>
www.bindingDB.org

> <BindingDB Reactant_set_id>
345750

> <Ligand InChI>
InChI=1S/C35H39ClN8O4/c1-24(45)41-13-17-43(18-14-41)26-9-11-30(32(21-26)47-3)39-35-37-23-29(36)34(40-35)38-31-12-10-27(44-19-15-42(16-20-44)25(2)46)22-33(31)48-28-7-5-4-6-8-28/h4-12,21-23H,13-20H2,1-3H3,(H2,37,38,39,40)

> <Ligand InChI Key>
FLGJTLWAOSHCNC-UHFFFAOYSA-N

> <BindingDB MonomerID>
193494

> <BindingDB Ligand Name>
US9199944, 76

> <Target Name Assigned by Curator or DataSource>
ALK tyrosine kinase receptor

> <Target Source Organism According to Curator or DataSource>
Homo sapiens

> <Ki (nM)>


> <IC50 (nM)>
>1000

> <Kd (nM)>


> <EC50 (nM)>


> <kon (M-1-s-1)>


> <koff (s-1)>


> <pH>


> <Temp C>
25.00

> <Curation/DataSource>
US Patent

> <Article DOI>


> <PMID>


> <PubChem AID>


> <Patent Number>
US9199944

> <Authors>
Lee, K; Kim, HR; Park, CH; Lee, CO; Lee, JK; Jung, HJ; Cho, SY; Chae, CH; Choi, SU; Ha, JD

> <Institution>
KOREA RESEARCH INSTITUTE OF CHEMICAL TECHNOLOGY

> <Link to Ligand in BindingDB>
http://www.bindingdb.org/bind/chemsearch/marvin/MolStructure.jsp?monomerid=193494

> <Link to Ligand-Target Pair in BindingDB>
http://www.bindingdb.org/jsp/dbsearch/PrimarySearch_ki.jsp?energyterm=kJ/mole&tag=pol&polymerid=5809&target=ALK+tyrosine+kinase+receptor&column=ki&startPg=0&Increment=50&submit=Search

> <Link to Ligand-Target Pair in BindingDB>
http://www.bindingdb.org/jsp/dbsearch/PrimarySearch_ki.jsp?energyterm=kJ/mole&tag=r21&monomerid=193494&enzyme=ALK+tyrosine+kinase+receptor&column=ki&startPg=0&Increment=50&submit=Search

> <Ligand HET ID in PDB>


> <PDB ID(s) for Ligand-Target Complex>


> <PubChem CID>
72546961

> <PubChem SID>
317230814

> <ChEBI ID of Ligand>


> <ChEMBL ID of Ligand>


> <DrugBank ID of Ligand>


> <IUPHAR_GRAC ID of Ligand>


> <KEGG ID of Ligand>


> <ZINC ID of Ligand>


> <Number of Protein Chains in Target (>1 implies a multichain complex)>
1

> <BindingDB Target Chain Sequence>
MGAIGLLWLLPLLLSTAAVGSGMGTGQRAGSPAAGPPLQPREPLSYSRLQRKSLAVDFVVPSLFRVYARDLLLPPSSSELKAGRPEARGSLALDCAPLLRLLGPAPGVSWTAGSPAPAEARTLSRVLKGGSVRKLRRAKQLVLELGEEAILEGCVGPPGEAAVGLLQFNLSELFSWWIRQGEGRLRIRLMPEKKASEVGREGRLSAAIRASQPRLLFQIFGTGHSSLESPTNMPSPSPDYFTWNLTWIMKDSFPFLSHRSRYGLECSFDFPCELEYSPPLHDLRNQSWSWRRIPSEEASQMDLLDGPGAERSKEMPRGSFLLLNTSADSKHTILSPWMRSSSEHCTLAVSVHRHLQPSGRYIAQLLPHNEAAREILLMPTPGKHGWTVLQGRIGRPDNPFRVALEYISSGNRSLSAVDFFALKNCSEGTSPGSKMALQSSFTCWNGTVLQLGQACDFHQDCAQGEDESQMCRKLPVGFYCNFEDGFCGWTQGTLSPHTPQWQVRTLKDARFQDHQDHALLLSTTDVPASESATVTSATFPAPIKSSPCELRMSWLIRGVLRGNVSLVLVENKTGKEQGRMVWHVAAYEGLSLWQWMVLPLLDVSDRFWLQMVAWWGQGSRAIVAFDNISISLDCYLTISGEDKILQNTAPKSRNLFERNPNKELKPGENSPRQTPIFDPTVHWLFTTCGASGPHGPTQAQCNNAYQNSNLSVEVGSEGPLKGIQIWKVPATDTYSISGYGAAGGKGGKNTMMRSHGVSVLGIFNLEKDDMLYILVGQQGEDACPSTNQLIQKVCIGENNVIEEEIRVNRSVHEWAGGGGGGGGATYVFKMKDGVPVPLIIAAGGGGRAYGAKTDTFHPERLENNSSVLGLNGNSGAAGGGGGWNDNTSLLWAGKSLQEGATGGHSCPQAMKKWGWETRGGFGGGGGGCSSGGGGGGYIGGNAASNNDPEMDGEDGVSFISPLGILYTPALKVMEGHGEVNIKHYLNCSHCEVDECHMDPESHKVICFCDHGTVLAEDGVSCIVSPTPEPHLPLSLILSVVTSALVAALVLAFSGIMIVYRRKHQELQAMQMELQSPEYKLSKLRTSTIMTDYNPNYCFAGKTSSISDLKEVPRKNITLIRGLGHGAFGEVYEGQVSGMPNDPSPLQVAVKTLPEVCSEQDELDFLMEALIISKFNHQNIVRCIGVSLQSLPRFILLELMAGGDLKSFLRETRPRPSQPSSLAMLDLLHVARDIACGCQYLEENHFIHRDIAARNCLLTCPGPGRVAKIGDFGMARDIYRASYYRKGGCAMLPVKWMPPEAFMEGIFTSKTDTWSFGVLLWEIFSLGYMPYPSKSNQEVLEFVTSGGRMDPPKNCPGPVYRIMTQCWQHQPEDRPNFAIILERIEYCTQDPDVINTALPIEYGPLVEEEEKVPVRPKDPEGVPPLLVSQQAKREEERSPAAPPPLPTTSSGKAAKKPTAAEISVRVPRGPAVEGGHVNMAFSQSNPPSELHKVHGSRNKPTSLWNPTYGSWFTEKPTKKNNPIAKKEPHDRGNLGLEGSCTVPPNVATGRLPGASLLLEPSSLTANMKEVPLFRLRHFPCGNVNYGYQQQGLPLEAATAPGAGHYEDTILKSKNSMNQPGP

> <PDB ID(s) of Target Chain>
2XB7,2XBA,3AOX,5FTO,5FTQ,6E0R,6EBW,6EDL,6MX8

> <UniProt (SwissProt) Recommended Name of Target Chain>
ALK tyrosine kinase receptor

> <UniProt (SwissProt) Entry Name of Target Chain>
ALK_HUMAN

> <UniProt (SwissProt) Primary ID of Target Chain>
Q9UM73

> <UniProt (SwissProt) Secondary ID(s) of Target Chain>
Q4ZFX9,Q53QQ6,Q53RZ4,Q59FI3,Q9Y4K6

> <UniProt (SwissProt) Alternative ID(s) of Target Chain>


> <UniProt (TrEMBL) Submitted Name of Target Chain>


> <UniProt (TrEMBL) Entry Name of Target Chain>


> <UniProt (TrEMBL) Primary ID of Target Chain>


> <UniProt (TrEMBL) Secondary ID(s) of Target Chain>


> <UniProt (TrEMBL) Alternative ID(s) of Target Chain>


$$$$
00140001.cdx

Vconf v2.0 Academic SN VC001-00000579
 37 41  0  0  0  0  0  0  0  0999 V2000
   -5.0013    2.8875    0.0000 N   0  0  0  0  0  0  0  0  0  0  0
   -5.0013    2.0625    0.0000 C   0  0  0  0  0  0  0  0  0  0  0
   -4.2868    1.6500    0.0000 C   0  0  0  0  0  0  0  0  0  0  0
   -3.5724    2.0625    0.0000 N   0  0  0  0  0  0  0  0  0  0  0
   -3.5724    2.8875    0.0000 C   0  0  0  0  0  0  0  0  0  0  0
   -4.2868    3.3000    0.0000 C   0  0  0  0  0  0  0  0  0  0  0
   -2.8579    1.6500    0.0000 C   0  0  0  0  0  0  0  0  0  0  0
   -2.8579    0.8250    0.0000 C   0  0  0  0  0  0  0  0  0  0  0
   -2.1434    0.4125    0.0000 C   0  0  0  0  0  0  0  0  0  0  0
   -1.4289    0.8250    0.0000 C   0  0  0  0  0  0  0  0  0  0  0
   -1.4289    1.6500    0.0000 C   0  0  0  0  0  0  0  0  0  0  0
   -2.1434    2.0625    0.0000 C   0  0  0  0  0  0  0  0  0  0  0
   -0.7145    2.0625    0.0000 O   0  0  0  0  0  0  0  0  0  0  0
   -0.7145    0.4125    0.0000 N   0  0  0  0  0  0  0  0  0  0  0
   -0.7145   -0.4125    0.0000 C   0  0  0  0  0  0  0  0  0  0  0
   -1.4289   -0.8250    0.0000 C   0  0  0  0  0  0  0  0  0  0  0
   -1.4289   -1.6500    0.0000 C   0  0  0  0  0  0  0  0  0  0  0
   -0.7145   -2.0625    0.0000 N   0  0  0  0  0  0  0  0  0  0  0
    0.0000   -1.6500    0.0000 C   0  0  0  0  0  0  0  0  0  0  0
    0.0000   -0.8250    0.0000 N   0  0  0  0  0  0  0  0  0  0  0
   -2.1434   -0.4125    0.0000 Cl  0  0  0  0  0  0  0  0  0  0  0
    0.7145   -2.0625    0.0000 N   0  0  0  0  0  0  0  0  0  0  0
    1.4289   -1.6500    0.0000 C   0  0  0  0  0  0  0  0  0  0  0
    2.1434   -2.0625    0.0000 C   0  0  0  0  0  0  0  0  0  0  0
    2.8579   -1.6500    0.0000 C   0  0  0  0  0  0  0  0  0  0  0
    2.8579   -0.8250    0.0000 C   0  0  0  0  0  0  0  0  0  0  0
    2.1434   -0.4125    0.0000 C   0  0  0  0  0  0  0  0  0  0  0
    1.4289   -0.8250    0.0000 C   0  0  0  0  0  0  0  0  0  0  0
    2.1434   -2.8875    0.0000 O   0  0  0  0  0  0  0  0  0  0  0
    3.5724   -0.4125    0.0000 N   0  0  0  0  0  0  0  0  0  0  0
    4.2868   -0.8250    0.0000 C   0  0  0  0  0  0  0  0  0  0  0
    5.0013   -0.4125    0.0000 C   0  0  0  0  0  0  0  0  0  0  0
    5.0013    0.4125    0.0000 N   0  0  0  0  0  0  0  0  0  0  0
    4.2868    0.8250    0.0000 C   0  0  0  0  0  0  0  0  0  0  0
    3.5724    0.4125    0.0000 C   0  0  0  0  0  0  0  0  0  0  0
    2.8579   -3.3000    0.0000 C   0  0  0  0  0  0  0  0  0  0  0
    0.0000    1.6500    0.0000 C   0  0  0  0  0  0  0  0  0  0  0
  1  2  1  0  0  0  0
  2  3  1  0  0  0  0
  3  4  1  0  0  0  0
  4  5  1  0  0  0  0
  5  6  1  0  0  0  0
  6  1  1  0  0  0  0
  4  7  1  0  0  0  0
  7  8  4  0  0  0  0
  8  9  4  0  0  0  0
  9 10  4  0  0  0  0
 10 11  4  0  0  0  0
 11 12  4  0  0  0  0
 12  7  4  0  0  0  0
 11 13  1  0  0  0  0
 10 14  1  0  0  0  0
 14 15  1  0  0  0  0
 15 16  4  0  0  0  0
 16 17  4  0  0  0  0
 17 18  4  0  0  0  0
 18 19  4  0  0  0  0
 19 20  4  0  0  0  0
 20 15  4  0  0  0  0
 16 21  1  0  0  0  0
 19 22  1  0  0  0  0
 22 23  1  0  0  0  0
 23 24  4  0  0  0  0
 24 25  4  0  0  0  0
 25 26  4  0  0  0  0
 26 27  4  0  0  0  0
 27 28  4  0  0  0  0
 28 23  4  0  0  0  0
 24 29  1  0  0  0  0
 26 30  1  0  0  0  0
 30 31  1  0  0  0  0
 31 32  1  0  0  0  0
 32 33  1  0  0  0  0
 33 34  1  0  0  0  0
 34 35  1  0  0  0  0
 35 30  1  0  0  0  0
 29 36  1  0  0  0  0
 13 37  1  0  0  0  0
M  END
> <From>
www.bindingDB.org

> <BindingDB Reactant_set_id>
345751

> <Ligand InChI>
InChI=1S/C26H33ClN8O2/c1-36-23-15-18(34-11-7-28-8-12-34)3-5-21(23)31-25-20(27)17-30-26(33-25)32-22-6-4-19(16-24(22)37-2)35-13-9-29-10-14-35/h3-6,15-17,28-29H,7-14H2,1-2H3,(H2,30,31,32,33)

> <Ligand InChI Key>
SOVLYNBTDBQYDR-UHFFFAOYSA-N

> <BindingDB MonomerID>
193495

> <BindingDB Ligand Name>
US9199944, 77

> <Target Name Assigned by Curator or DataSource>
ALK tyrosine kinase receptor

> <Target Source Organism According to Curator or DataSource>
Homo sapiens

> <Ki (nM)>


> <IC50 (nM)>
 3

> <Kd (nM)>


> <EC50 (nM)>


> <kon (M-1-s-1)>


> <koff (s-1)>


> <pH>


> <Temp C>
25.00

> <Curation/DataSource>
US Patent

> <Article DOI>


> <PMID>


> <PubChem AID>


> <Patent Number>
US9199944

> <Authors>
Lee, K; Kim, HR; Park, CH; Lee, CO; Lee, JK; Jung, HJ; Cho, SY; Chae, CH; Choi, SU; Ha, JD

> <Institution>
KOREA RESEARCH INSTITUTE OF CHEMICAL TECHNOLOGY

> <Link to Ligand in BindingDB>
http://www.bindingdb.org/bind/chemsearch/marvin/MolStructure.jsp?monomerid=193495

> <Link to Ligand-Target Pair in BindingDB>
http://www.bindingdb.org/jsp/dbsearch/PrimarySearch_ki.jsp?energyterm=kJ/mole&tag=pol&polymerid=5809&target=ALK+tyrosine+kinase+receptor&column=ki&startPg=0&Increment=50&submit=Search

> <Link to Ligand-Target Pair in BindingDB>
http://www.bindingdb.org/jsp/dbsearch/PrimarySearch_ki.jsp?energyterm=kJ/mole&tag=r21&monomerid=193495&enzyme=ALK+tyrosine+kinase+receptor&column=ki&startPg=0&Increment=50&submit=Search

> <Ligand HET ID in PDB>


> <PDB ID(s) for Ligand-Target Complex>


> <PubChem CID>
118105714

> <PubChem SID>
317230815

> <ChEBI ID of Ligand>


> <ChEMBL ID of Ligand>


> <DrugBank ID of Ligand>


> <IUPHAR_GRAC ID of Ligand>


> <KEGG ID of Ligand>


> <ZINC ID of Ligand>


> <Number of Protein Chains in Target (>1 implies a multichain complex)>
1

> <BindingDB Target Chain Sequence>
MGAIGLLWLLPLLLSTAAVGSGMGTGQRAGSPAAGPPLQPREPLSYSRLQRKSLAVDFVVPSLFRVYARDLLLPPSSSELKAGRPEARGSLALDCAPLLRLLGPAPGVSWTAGSPAPAEARTLSRVLKGGSVRKLRRAKQLVLELGEEAILEGCVGPPGEAAVGLLQFNLSELFSWWIRQGEGRLRIRLMPEKKASEVGREGRLSAAIRASQPRLLFQIFGTGHSSLESPTNMPSPSPDYFTWNLTWIMKDSFPFLSHRSRYGLECSFDFPCELEYSPPLHDLRNQSWSWRRIPSEEASQMDLLDGPGAERSKEMPRGSFLLLNTSADSKHTILSPWMRSSSEHCTLAVSVHRHLQPSGRYIAQLLPHNEAAREILLMPTPGKHGWTVLQGRIGRPDNPFRVALEYISSGNRSLSAVDFFALKNCSEGTSPGSKMALQSSFTCWNGTVLQLGQACDFHQDCAQGEDESQMCRKLPVGFYCNFEDGFCGWTQGTLSPHTPQWQVRTLKDARFQDHQDHALLLSTTDVPASESATVTSATFPAPIKSSPCELRMSWLIRGVLRGNVSLVLVENKTGKEQGRMVWHVAAYEGLSLWQWMVLPLLDVSDRFWLQMVAWWGQGSRAIVAFDNISISLDCYLTISGEDKILQNTAPKSRNLFERNPNKELKPGENSPRQTPIFDPTVHWLFTTCGASGPHGPTQAQCNNAYQNSNLSVEVGSEGPLKGIQIWKVPATDTYSISGYGAAGGKGGKNTMMRSHGVSVLGIFNLEKDDMLYILVGQQGEDACPSTNQLIQKVCIGENNVIEEEIRVNRSVHEWAGGGGGGGGATYVFKMKDGVPVPLIIAAGGGGRAYGAKTDTFHPERLENNSSVLGLNGNSGAAGGGGGWNDNTSLLWAGKSLQEGATGGHSCPQAMKKWGWETRGGFGGGGGGCSSGGGGGGYIGGNAASNNDPEMDGEDGVSFISPLGILYTPALKVMEGHGEVNIKHYLNCSHCEVDECHMDPESHKVICFCDHGTVLAEDGVSCIVSPTPEPHLPLSLILSVVTSALVAALVLAFSGIMIVYRRKHQELQAMQMELQSPEYKLSKLRTSTIMTDYNPNYCFAGKTSSISDLKEVPRKNITLIRGLGHGAFGEVYEGQVSGMPNDPSPLQVAVKTLPEVCSEQDELDFLMEALIISKFNHQNIVRCIGVSLQSLPRFILLELMAGGDLKSFLRETRPRPSQPSSLAMLDLLHVARDIACGCQYLEENHFIHRDIAARNCLLTCPGPGRVAKIGDFGMARDIYRASYYRKGGCAMLPVKWMPPEAFMEGIFTSKTDTWSFGVLLWEIFSLGYMPYPSKSNQEVLEFVTSGGRMDPPKNCPGPVYRIMTQCWQHQPEDRPNFAIILERIEYCTQDPDVINTALPIEYGPLVEEEEKVPVRPKDPEGVPPLLVSQQAKREEERSPAAPPPLPTTSSGKAAKKPTAAEISVRVPRGPAVEGGHVNMAFSQSNPPSELHKVHGSRNKPTSLWNPTYGSWFTEKPTKKNNPIAKKEPHDRGNLGLEGSCTVPPNVATGRLPGASLLLEPSSLTANMKEVPLFRLRHFPCGNVNYGYQQQGLPLEAATAPGAGHYEDTILKSKNSMNQPGP

> <PDB ID(s) of Target Chain>
2XB7,2XBA,3AOX,5FTO,5FTQ,6E0R,6EBW,6EDL,6MX8

> <UniProt (SwissProt) Recommended Name of Target Chain>
ALK tyrosine kinase receptor

> <UniProt (SwissProt) Entry Name of Target Chain>
ALK_HUMAN

> <UniProt (SwissProt) Primary ID of Target Chain>
Q9UM73

> <UniProt (SwissProt) Secondary ID(s) of Target Chain>
Q4ZFX9,Q53QQ6,Q53RZ4,Q59FI3,Q9Y4K6

> <UniProt (SwissProt) Alternative ID(s) of Target Chain>


> <UniProt (TrEMBL) Submitted Name of Target Chain>


> <UniProt (TrEMBL) Entry Name of Target Chain>


> <UniProt (TrEMBL) Primary ID of Target Chain>


> <UniProt (TrEMBL) Secondary ID(s) of Target Chain>


> <UniProt (TrEMBL) Alternative ID(s) of Target Chain>


$$$$
00142001.cdx

Vconf v2.0 Academic SN VC001-00000579
 47 51  0  0  0  0  0  0  0  0999 V2000
   -7.8592    2.4750    0.0000 C   0  0  0  0  0  0  0  0  0  0  0
   -7.1447    2.8875    0.0000 C   0  0  0  0  0  0  0  0  0  0  0
   -6.4302    2.4750    0.0000 N   0  0  0  0  0  0  0  0  0  0  0
   -5.7158    2.8875    0.0000 C   0  0  0  0  0  0  0  0  0  0  0
   -5.0013    2.4750    0.0000 N   0  0  0  0  0  0  0  0  0  0  0
   -5.7158    3.7125    0.0000 O   0  0  0  0  0  0  0  0  0  0  0
   -5.0013    1.6500    0.0000 C   0  0  0  0  0  0  0  0  0  0  0
   -4.2868    1.2375    0.0000 C   0  0  0  0  0  0  0  0  0  0  0
   -3.5724    1.6500    0.0000 N   0  0  0  0  0  0  0  0  0  0  0
   -3.5724    2.4750    0.0000 C   0  0  0  0  0  0  0  0  0  0  0
   -4.2868    2.8875    0.0000 C   0  0  0  0  0  0  0  0  0  0  0
   -2.8579    1.2375    0.0000 C   0  0  0  0  0  0  0  0  0  0  0
   -2.8579    0.4125    0.0000 C   0  0  0  0  0  0  0  0  0  0  0
   -2.1434    0.0000    0.0000 C   0  0  0  0  0  0  0  0  0  0  0
   -1.4289    0.4125    0.0000 C   0  0  0  0  0  0  0  0  0  0  0
   -1.4289    1.2375    0.0000 C   0  0  0  0  0  0  0  0  0  0  0
   -2.1434    1.6500    0.0000 C   0  0  0  0  0  0  0  0  0  0  0
   -0.7145    1.6500    0.0000 O   0  0  0  0  0  0  0  0  0  0  0
    0.0000    1.2375    0.0000 C   0  0  0  0  0  0  0  0  0  0  0
   -0.7145    0.0000    0.0000 N   0  0  0  0  0  0  0  0  0  0  0
   -0.7145   -0.8250    0.0000 C   0  0  0  0  0  0  0  0  0  0  0
   -1.4289   -1.2375    0.0000 C   0  0  0  0  0  0  0  0  0  0  0
   -1.4289   -2.0625    0.0000 C   0  0  0  0  0  0  0  0  0  0  0
   -0.7145   -2.4750    0.0000 N   0  0  0  0  0  0  0  0  0  0  0
    0.0000   -2.0625    0.0000 C   0  0  0  0  0  0  0  0  0  0  0
    0.0000   -1.2375    0.0000 N   0  0  0  0  0  0  0  0  0  0  0
   -2.1434   -0.8250    0.0000 Cl  0  0  0  0  0  0  0  0  0  0  0
    0.7145   -2.4750    0.0000 N   0  0  0  0  0  0  0  0  0  0  0
    1.4289   -2.0625    0.0000 C   0  0  0  0  0  0  0  0  0  0  0
    2.1434   -2.4750    0.0000 C   0  0  0  0  0  0  0  0  0  0  0
    2.8579   -2.0625    0.0000 C   0  0  0  0  0  0  0  0  0  0  0
    2.8579   -1.2375    0.0000 C   0  0  0  0  0  0  0  0  0  0  0
    2.1434   -0.8250    0.0000 C   0  0  0  0  0  0  0  0  0  0  0
    1.4289   -1.2375    0.0000 C   0  0  0  0  0  0  0  0  0  0  0
    2.1434   -3.3000    0.0000 O   0  0  0  0  0  0  0  0  0  0  0
    2.8579   -3.7125    0.0000 C   0  0  0  0  0  0  0  0  0  0  0
    3.5724   -0.8250    0.0000 N   0  0  0  0  0  0  0  0  0  0  0
    4.2868   -1.2375    0.0000 C   0  0  0  0  0  0  0  0  0  0  0
    5.0013   -0.8250    0.0000 C   0  0  0  0  0  0  0  0  0  0  0
    5.0013    0.0000    0.0000 N   0  0  0  0  0  0  0  0  0  0  0
    4.2868    0.4125    0.0000 C   0  0  0  0  0  0  0  0  0  0  0
    3.5724    0.0000    0.0000 C   0  0  0  0  0  0  0  0  0  0  0
    5.7158    0.4125    0.0000 C   0  0  0  0  0  0  0  0  0  0  0
    6.4302    0.0000    0.0000 N   0  0  0  0  0  0  0  0  0  0  0
    5.7158    1.2375    0.0000 O   0  0  0  0  0  0  0  0  0  0  0
    7.1447    0.4125    0.0000 C   0  0  0  0  0  0  0  0  0  0  0
    7.8592    0.0000    0.0000 C   0  0  0  0  0  0  0  0  0  0  0
  1  2  1  0  0  0  0
  2  3  1  0  0  0  0
  3  4  1  0  0  0  0
  4  5  1  0  0  0  0
  4  6  2  0  0  0  0
  5  7  1  0  0  0  0
  7  8  1  0  0  0  0
  8  9  1  0  0  0  0
  9 10  1  0  0  0  0
 10 11  1  0  0  0  0
 11  5  1  0  0  0  0
  9 12  1  0  0  0  0
 12 13  4  0  0  0  0
 13 14  4  0  0  0  0
 14 15  4  0  0  0  0
 15 16  4  0  0  0  0
 16 17  4  0  0  0  0
 17 12  4  0  0  0  0
 16 18  1  0  0  0  0
 18 19  1  0  0  0  0
 15 20  1  0  0  0  0
 20 21  1  0  0  0  0
 21 22  4  0  0  0  0
 22 23  4  0  0  0  0
 23 24  4  0  0  0  0
 24 25  4  0  0  0  0
 25 26  4  0  0  0  0
 26 21  4  0  0  0  0
 22 27  1  0  0  0  0
 25 28  1  0  0  0  0
 28 29  1  0  0  0  0
 29 30  4  0  0  0  0
 30 31  4  0  0  0  0
 31 32  4  0  0  0  0
 32 33  4  0  0  0  0
 33 34  4  0  0  0  0
 34 29  4  0  0  0  0
 30 35  1  0  0  0  0
 35 36  1  0  0  0  0
 32 37  1  0  0  0  0
 37 38  1  0  0  0  0
 38 39  1  0  0  0  0
 39 40  1  0  0  0  0
 40 41  1  0  0  0  0
 41 42  1  0  0  0  0
 42 37  1  0  0  0  0
 40 43  1  0  0  0  0
 43 44  1  0  0  0  0
 43 45  2  0  0  0  0
 44 46  1  0  0  0  0
 46 47  1  0  0  0  0
M  END
> <From>
www.bindingDB.org

> <BindingDB Reactant_set_id>
345752

> <Ligand InChI>
InChI=1S/C32H43ClN10O4/c1-5-34-31(44)42-15-11-40(12-16-42)22-7-9-25(27(19-22)46-3)37-29-24(33)21-36-30(39-29)38-26-10-8-23(20-28(26)47-4)41-13-17-43(18-14-41)32(45)35-6-2/h7-10,19-21H,5-6,11-18H2,1-4H3,(H,34,44)(H,35,45)(H2,36,37,38,39)

> <Ligand InChI Key>
VOCNWNCIMLZNCK-UHFFFAOYSA-N

> <BindingDB MonomerID>
193496

> <BindingDB Ligand Name>
US9199944, 78

> <Target Name Assigned by Curator or DataSource>
ALK tyrosine kinase receptor

> <Target Source Organism According to Curator or DataSource>
Homo sapiens

> <Ki (nM)>


> <IC50 (nM)>
 18

> <Kd (nM)>


> <EC50 (nM)>


> <kon (M-1-s-1)>


> <koff (s-1)>


> <pH>


> <Temp C>
25.00

> <Curation/DataSource>
US Patent

> <Article DOI>


> <PMID>


> <PubChem AID>


> <Patent Number>
US9199944

> <Authors>
Lee, K; Kim, HR; Park, CH; Lee, CO; Lee, JK; Jung, HJ; Cho, SY; Chae, CH; Choi, SU; Ha, JD

> <Institution>
KOREA RESEARCH INSTITUTE OF CHEMICAL TECHNOLOGY

> <Link to Ligand in BindingDB>
http://www.bindingdb.org/bind/chemsearch/marvin/MolStructure.jsp?monomerid=193496

> <Link to Ligand-Target Pair in BindingDB>
http://www.bindingdb.org/jsp/dbsearch/PrimarySearch_ki.jsp?energyterm=kJ/mole&tag=pol&polymerid=5809&target=ALK+tyrosine+kinase+receptor&column=ki&startPg=0&Increment=50&submit=Search

> <Link to Ligand-Target Pair in BindingDB>
http://www.bindingdb.org/jsp/dbsearch/PrimarySearch_ki.jsp?energyterm=kJ/mole&tag=r21&monomerid=193496&enzyme=ALK+tyrosine+kinase+receptor&column=ki&startPg=0&Increment=50&submit=Search

> <Ligand HET ID in PDB>


> <PDB ID(s) for Ligand-Target Complex>


> <PubChem CID>
118119578

> <PubChem SID>
317230816

> <ChEBI ID of Ligand>


> <ChEMBL ID of Ligand>


> <DrugBank ID of Ligand>


> <IUPHAR_GRAC ID of Ligand>


> <KEGG ID of Ligand>


> <ZINC ID of Ligand>


> <Number of Protein Chains in Target (>1 implies a multichain complex)>
1

> <BindingDB Target Chain Sequence>
MGAIGLLWLLPLLLSTAAVGSGMGTGQRAGSPAAGPPLQPREPLSYSRLQRKSLAVDFVVPSLFRVYARDLLLPPSSSELKAGRPEARGSLALDCAPLLRLLGPAPGVSWTAGSPAPAEARTLSRVLKGGSVRKLRRAKQLVLELGEEAILEGCVGPPGEAAVGLLQFNLSELFSWWIRQGEGRLRIRLMPEKKASEVGREGRLSAAIRASQPRLLFQIFGTGHSSLESPTNMPSPSPDYFTWNLTWIMKDSFPFLSHRSRYGLECSFDFPCELEYSPPLHDLRNQSWSWRRIPSEEASQMDLLDGPGAERSKEMPRGSFLLLNTSADSKHTILSPWMRSSSEHCTLAVSVHRHLQPSGRYIAQLLPHNEAAREILLMPTPGKHGWTVLQGRIGRPDNPFRVALEYISSGNRSLSAVDFFALKNCSEGTSPGSKMALQSSFTCWNGTVLQLGQACDFHQDCAQGEDESQMCRKLPVGFYCNFEDGFCGWTQGTLSPHTPQWQVRTLKDARFQDHQDHALLLSTTDVPASESATVTSATFPAPIKSSPCELRMSWLIRGVLRGNVSLVLVENKTGKEQGRMVWHVAAYEGLSLWQWMVLPLLDVSDRFWLQMVAWWGQGSRAIVAFDNISISLDCYLTISGEDKILQNTAPKSRNLFERNPNKELKPGENSPRQTPIFDPTVHWLFTTCGASGPHGPTQAQCNNAYQNSNLSVEVGSEGPLKGIQIWKVPATDTYSISGYGAAGGKGGKNTMMRSHGVSVLGIFNLEKDDMLYILVGQQGEDACPSTNQLIQKVCIGENNVIEEEIRVNRSVHEWAGGGGGGGGATYVFKMKDGVPVPLIIAAGGGGRAYGAKTDTFHPERLENNSSVLGLNGNSGAAGGGGGWNDNTSLLWAGKSLQEGATGGHSCPQAMKKWGWETRGGFGGGGGGCSSGGGGGGYIGGNAASNNDPEMDGEDGVSFISPLGILYTPALKVMEGHGEVNIKHYLNCSHCEVDECHMDPESHKVICFCDHGTVLAEDGVSCIVSPTPEPHLPLSLILSVVTSALVAALVLAFSGIMIVYRRKHQELQAMQMELQSPEYKLSKLRTSTIMTDYNPNYCFAGKTSSISDLKEVPRKNITLIRGLGHGAFGEVYEGQVSGMPNDPSPLQVAVKTLPEVCSEQDELDFLMEALIISKFNHQNIVRCIGVSLQSLPRFILLELMAGGDLKSFLRETRPRPSQPSSLAMLDLLHVARDIACGCQYLEENHFIHRDIAARNCLLTCPGPGRVAKIGDFGMARDIYRASYYRKGGCAMLPVKWMPPEAFMEGIFTSKTDTWSFGVLLWEIFSLGYMPYPSKSNQEVLEFVTSGGRMDPPKNCPGPVYRIMTQCWQHQPEDRPNFAIILERIEYCTQDPDVINTALPIEYGPLVEEEEKVPVRPKDPEGVPPLLVSQQAKREEERSPAAPPPLPTTSSGKAAKKPTAAEISVRVPRGPAVEGGHVNMAFSQSNPPSELHKVHGSRNKPTSLWNPTYGSWFTEKPTKKNNPIAKKEPHDRGNLGLEGSCTVPPNVATGRLPGASLLLEPSSLTANMKEVPLFRLRHFPCGNVNYGYQQQGLPLEAATAPGAGHYEDTILKSKNSMNQPGP

> <PDB ID(s) of Target Chain>
2XB7,2XBA,3AOX,5FTO,5FTQ,6E0R,6EBW,6EDL,6MX8

> <UniProt (SwissProt) Recommended Name of Target Chain>
ALK tyrosine kinase receptor

> <UniProt (SwissProt) Entry Name of Target Chain>
ALK_HUMAN

> <UniProt (SwissProt) Primary ID of Target Chain>
Q9UM73

> <UniProt (SwissProt) Secondary ID(s) of Target Chain>
Q4ZFX9,Q53QQ6,Q53RZ4,Q59FI3,Q9Y4K6

> <UniProt (SwissProt) Alternative ID(s) of Target Chain>


> <UniProt (TrEMBL) Submitted Name of Target Chain>


> <UniProt (TrEMBL) Entry Name of Target Chain>


> <UniProt (TrEMBL) Primary ID of Target Chain>


> <UniProt (TrEMBL) Secondary ID(s) of Target Chain>


> <UniProt (TrEMBL) Alternative ID(s) of Target Chain>


$$$$
00143001.cdx

Vconf v2.0 Academic SN VC001-00000579
 45 49  0  0  0  0  0  0  0  0999 V2000
   -6.4304    2.5303    0.0000 C   0  0  0  0  0  0  0  0  0  0  0
   -5.7159    2.9428    0.0000 S   0  0  0  0  0  0  0  0  0  0  0
   -5.0014    2.5303    0.0000 N   0  0  0  0  0  0  0  0  0  0  0
   -6.1284    3.6574    0.0000 O   0  0  0  0  0  0  0  0  0  0  0
   -5.0014    1.7053    0.0000 C   0  0  0  0  0  0  0  0  0  0  0
   -4.2870    1.2928    0.0000 C   0  0  0  0  0  0  0  0  0  0  0
   -3.5724    1.7053    0.0000 N   0  0  0  0  0  0  0  0  0  0  0
   -3.5724    2.5303    0.0000 C   0  0  0  0  0  0  0  0  0  0  0
   -4.2870    2.9428    0.0000 C   0  0  0  0  0  0  0  0  0  0  0
   -2.8579    1.2928    0.0000 C   0  0  0  0  0  0  0  0  0  0  0
   -2.8579    0.4678    0.0000 C   0  0  0  0  0  0  0  0  0  0  0
   -2.1435    0.0552    0.0000 C   0  0  0  0  0  0  0  0  0  0  0
   -1.4290    0.4678    0.0000 C   0  0  0  0  0  0  0  0  0  0  0
   -1.4290    1.2928    0.0000 C   0  0  0  0  0  0  0  0  0  0  0
   -2.1435    1.7053    0.0000 C   0  0  0  0  0  0  0  0  0  0  0
   -0.7145    1.7053    0.0000 O   0  0  0  0  0  0  0  0  0  0  0
    0.0000    1.2928    0.0000 C   0  0  0  0  0  0  0  0  0  0  0
   -0.7145    0.0552    0.0000 N   0  0  0  0  0  0  0  0  0  0  0
   -0.7145   -0.7698    0.0000 C   0  0  0  0  0  0  0  0  0  0  0
   -1.4290   -1.1822    0.0000 C   0  0  0  0  0  0  0  0  0  0  0
   -1.4290   -2.0073    0.0000 C   0  0  0  0  0  0  0  0  0  0  0
   -0.7145   -2.4198    0.0000 N   0  0  0  0  0  0  0  0  0  0  0
    0.0000   -2.0073    0.0000 C   0  0  0  0  0  0  0  0  0  0  0
    0.0000   -1.1822    0.0000 N   0  0  0  0  0  0  0  0  0  0  0
   -2.1435   -0.7698    0.0000 Cl  0  0  0  0  0  0  0  0  0  0  0
    0.7145   -2.4198    0.0000 N   0  0  0  0  0  0  0  0  0  0  0
    1.4290   -2.0073    0.0000 C   0  0  0  0  0  0  0  0  0  0  0
    2.1435   -2.4198    0.0000 C   0  0  0  0  0  0  0  0  0  0  0
    2.8579   -2.0073    0.0000 C   0  0  0  0  0  0  0  0  0  0  0
    2.8579   -1.1822    0.0000 C   0  0  0  0  0  0  0  0  0  0  0
    2.1435   -0.7698    0.0000 C   0  0  0  0  0  0  0  0  0  0  0
    1.4290   -1.1822    0.0000 C   0  0  0  0  0  0  0  0  0  0  0
    2.1435   -3.2448    0.0000 O   0  0  0  0  0  0  0  0  0  0  0
    2.8579   -3.6574    0.0000 C   0  0  0  0  0  0  0  0  0  0  0
    3.5724   -0.7698    0.0000 N   0  0  0  0  0  0  0  0  0  0  0
    4.2870   -1.1822    0.0000 C   0  0  0  0  0  0  0  0  0  0  0
    5.0014   -0.7698    0.0000 C   0  0  0  0  0  0  0  0  0  0  0
    5.0014    0.0552    0.0000 N   0  0  0  0  0  0  0  0  0  0  0
    4.2870    0.4678    0.0000 C   0  0  0  0  0  0  0  0  0  0  0
    3.5724    0.0552    0.0000 C   0  0  0  0  0  0  0  0  0  0  0
    5.7159    0.4678    0.0000 S   0  0  0  0  0  0  0  0  0  0  0
    6.4304    0.0552    0.0000 C   0  0  0  0  0  0  0  0  0  0  0
    5.3034    1.1822    0.0000 O   0  0  0  0  0  0  0  0  0  0  0
   -5.3034    3.6574    0.0000 O   0  0  0  0  0  0  0  0  0  0  0
    6.1284    1.1822    0.0000 O   0  0  0  0  0  0  0  0  0  0  0
  1  2  1  0  0  0  0
  2  3  1  0  0  0  0
  2  4  2  0  0  0  0
  3  5  1  0  0  0  0
  5  6  1  0  0  0  0
  6  7  1  0  0  0  0
  7  8  1  0  0  0  0
  8  9  1  0  0  0  0
  9  3  1  0  0  0  0
  7 10  1  0  0  0  0
 10 11  4  0  0  0  0
 11 12  4  0  0  0  0
 12 13  4  0  0  0  0
 13 14  4  0  0  0  0
 14 15  4  0  0  0  0
 15 10  4  0  0  0  0
 14 16  1  0  0  0  0
 16 17  1  0  0  0  0
 13 18  1  0  0  0  0
 18 19  1  0  0  0  0
 19 20  4  0  0  0  0
 20 21  4  0  0  0  0
 21 22  4  0  0  0  0
 22 23  4  0  0  0  0
 23 24  4  0  0  0  0
 24 19  4  0  0  0  0
 20 25  1  0  0  0  0
 23 26  1  0  0  0  0
 26 27  1  0  0  0  0
 27 28  4  0  0  0  0
 28 29  4  0  0  0  0
 29 30  4  0  0  0  0
 30 31  4  0  0  0  0
 31 32  4  0  0  0  0
 32 27  4  0  0  0  0
 28 33  1  0  0  0  0
 33 34  1  0  0  0  0
 30 35  1  0  0  0  0
 35 36  1  0  0  0  0
 36 37  1  0  0  0  0
 37 38  1  0  0  0  0
 38 39  1  0  0  0  0
 39 40  1  0  0  0  0
 40 35  1  0  0  0  0
 38 41  1  0  0  0  0
 41 42  1  0  0  0  0
 41 43  2  0  0  0  0
  2 44  2  0  0  0  0
 41 45  2  0  0  0  0
M  END
> <From>
www.bindingDB.org

> <BindingDB Reactant_set_id>
345753

> <Ligand InChI>
InChI=1S/C28H37ClN8O6S2/c1-42-25-17-20(34-9-13-36(14-10-34)44(3,38)39)5-7-23(25)31-27-22(29)19-30-28(33-27)32-24-8-6-21(18-26(24)43-2)35-11-15-37(16-12-35)45(4,40)41/h5-8,17-19H,9-16H2,1-4H3,(H2,30,31,32,33)

> <Ligand InChI Key>
JFKJCERXVDHGIT-UHFFFAOYSA-N

> <BindingDB MonomerID>
193497

> <BindingDB Ligand Name>
US9199944, 79

> <Target Name Assigned by Curator or DataSource>
ALK tyrosine kinase receptor

> <Target Source Organism According to Curator or DataSource>
Homo sapiens

> <Ki (nM)>


> <IC50 (nM)>
 20

> <Kd (nM)>


> <EC50 (nM)>


> <kon (M-1-s-1)>


> <koff (s-1)>


> <pH>


> <Temp C>
25.00

> <Curation/DataSource>
US Patent

> <Article DOI>


> <PMID>


> <PubChem AID>


> <Patent Number>
US9199944

> <Authors>
Lee, K; Kim, HR; Park, CH; Lee, CO; Lee, JK; Jung, HJ; Cho, SY; Chae, CH; Choi, SU; Ha, JD

> <Institution>
KOREA RESEARCH INSTITUTE OF CHEMICAL TECHNOLOGY

> <Link to Ligand in BindingDB>
http://www.bindingdb.org/bind/chemsearch/marvin/MolStructure.jsp?monomerid=193497

> <Link to Ligand-Target Pair in BindingDB>
http://www.bindingdb.org/jsp/dbsearch/PrimarySearch_ki.jsp?energyterm=kJ/mole&tag=pol&polymerid=5809&target=ALK+tyrosine+kinase+receptor&column=ki&startPg=0&Increment=50&submit=Search

> <Link to Ligand-Target Pair in BindingDB>
http://www.bindingdb.org/jsp/dbsearch/PrimarySearch_ki.jsp?energyterm=kJ/mole&tag=r21&monomerid=193497&enzyme=ALK+tyrosine+kinase+receptor&column=ki&startPg=0&Increment=50&submit=Search

> <Ligand HET ID in PDB>


> <PDB ID(s) for Ligand-Target Complex>


> <PubChem CID>
118105658

> <PubChem SID>
317230817

> <ChEBI ID of Ligand>


> <ChEMBL ID of Ligand>


> <DrugBank ID of Ligand>


> <IUPHAR_GRAC ID of Ligand>


> <KEGG ID of Ligand>


> <ZINC ID of Ligand>


> <Number of Protein Chains in Target (>1 implies a multichain complex)>
1

> <BindingDB Target Chain Sequence>
MGAIGLLWLLPLLLSTAAVGSGMGTGQRAGSPAAGPPLQPREPLSYSRLQRKSLAVDFVVPSLFRVYARDLLLPPSSSELKAGRPEARGSLALDCAPLLRLLGPAPGVSWTAGSPAPAEARTLSRVLKGGSVRKLRRAKQLVLELGEEAILEGCVGPPGEAAVGLLQFNLSELFSWWIRQGEGRLRIRLMPEKKASEVGREGRLSAAIRASQPRLLFQIFGTGHSSLESPTNMPSPSPDYFTWNLTWIMKDSFPFLSHRSRYGLECSFDFPCELEYSPPLHDLRNQSWSWRRIPSEEASQMDLLDGPGAERSKEMPRGSFLLLNTSADSKHTILSPWMRSSSEHCTLAVSVHRHLQPSGRYIAQLLPHNEAAREILLMPTPGKHGWTVLQGRIGRPDNPFRVALEYISSGNRSLSAVDFFALKNCSEGTSPGSKMALQSSFTCWNGTVLQLGQACDFHQDCAQGEDESQMCRKLPVGFYCNFEDGFCGWTQGTLSPHTPQWQVRTLKDARFQDHQDHALLLSTTDVPASESATVTSATFPAPIKSSPCELRMSWLIRGVLRGNVSLVLVENKTGKEQGRMVWHVAAYEGLSLWQWMVLPLLDVSDRFWLQMVAWWGQGSRAIVAFDNISISLDCYLTISGEDKILQNTAPKSRNLFERNPNKELKPGENSPRQTPIFDPTVHWLFTTCGASGPHGPTQAQCNNAYQNSNLSVEVGSEGPLKGIQIWKVPATDTYSISGYGAAGGKGGKNTMMRSHGVSVLGIFNLEKDDMLYILVGQQGEDACPSTNQLIQKVCIGENNVIEEEIRVNRSVHEWAGGGGGGGGATYVFKMKDGVPVPLIIAAGGGGRAYGAKTDTFHPERLENNSSVLGLNGNSGAAGGGGGWNDNTSLLWAGKSLQEGATGGHSCPQAMKKWGWETRGGFGGGGGGCSSGGGGGGYIGGNAASNNDPEMDGEDGVSFISPLGILYTPALKVMEGHGEVNIKHYLNCSHCEVDECHMDPESHKVICFCDHGTVLAEDGVSCIVSPTPEPHLPLSLILSVVTSALVAALVLAFSGIMIVYRRKHQELQAMQMELQSPEYKLSKLRTSTIMTDYNPNYCFAGKTSSISDLKEVPRKNITLIRGLGHGAFGEVYEGQVSGMPNDPSPLQVAVKTLPEVCSEQDELDFLMEALIISKFNHQNIVRCIGVSLQSLPRFILLELMAGGDLKSFLRETRPRPSQPSSLAMLDLLHVARDIACGCQYLEENHFIHRDIAARNCLLTCPGPGRVAKIGDFGMARDIYRASYYRKGGCAMLPVKWMPPEAFMEGIFTSKTDTWSFGVLLWEIFSLGYMPYPSKSNQEVLEFVTSGGRMDPPKNCPGPVYRIMTQCWQHQPEDRPNFAIILERIEYCTQDPDVINTALPIEYGPLVEEEEKVPVRPKDPEGVPPLLVSQQAKREEERSPAAPPPLPTTSSGKAAKKPTAAEISVRVPRGPAVEGGHVNMAFSQSNPPSELHKVHGSRNKPTSLWNPTYGSWFTEKPTKKNNPIAKKEPHDRGNLGLEGSCTVPPNVATGRLPGASLLLEPSSLTANMKEVPLFRLRHFPCGNVNYGYQQQGLPLEAATAPGAGHYEDTILKSKNSMNQPGP

> <PDB ID(s) of Target Chain>
2XB7,2XBA,3AOX,5FTO,5FTQ,6E0R,6EBW,6EDL,6MX8

> <UniProt (SwissProt) Recommended Name of Target Chain>
ALK tyrosine kinase receptor

> <UniProt (SwissProt) Entry Name of Target Chain>
ALK_HUMAN

> <UniProt (SwissProt) Primary ID of Target Chain>
Q9UM73

> <UniProt (SwissProt) Secondary ID(s) of Target Chain>
Q4ZFX9,Q53QQ6,Q53RZ4,Q59FI3,Q9Y4K6

> <UniProt (SwissProt) Alternative ID(s) of Target Chain>


> <UniProt (TrEMBL) Submitted Name of Target Chain>


> <UniProt (TrEMBL) Entry Name of Target Chain>


> <UniProt (TrEMBL) Primary ID of Target Chain>


> <UniProt (TrEMBL) Secondary ID(s) of Target Chain>


> <UniProt (TrEMBL) Alternative ID(s) of Target Chain>


$$$$
00144001.cdx

Vconf v2.0 Academic SN VC001-00000579
 45 49  0  0  0  0  0  0  0  0999 V2000
   -7.1447    2.8875    0.0000 O   0  0  0  0  0  0  0  0  0  0  0
   -6.4302    2.4750    0.0000 C   0  0  0  0  0  0  0  0  0  0  0
   -5.7158    2.8875    0.0000 C   0  0  0  0  0  0  0  0  0  0  0
   -5.0013    2.4750    0.0000 N   0  0  0  0  0  0  0  0  0  0  0
   -5.7158    3.7125    0.0000 O   0  0  0  0  0  0  0  0  0  0  0
   -5.0013    1.6500    0.0000 C   0  0  0  0  0  0  0  0  0  0  0
   -4.2868    1.2375    0.0000 C   0  0  0  0  0  0  0  0  0  0  0
   -3.5724    1.6500    0.0000 N   0  0  0  0  0  0  0  0  0  0  0
   -3.5724    2.4750    0.0000 C   0  0  0  0  0  0  0  0  0  0  0
   -4.2868    2.8875    0.0000 C   0  0  0  0  0  0  0  0  0  0  0
   -2.8579    1.2375    0.0000 C   0  0  0  0  0  0  0  0  0  0  0
   -2.8579    0.4125    0.0000 C   0  0  0  0  0  0  0  0  0  0  0
   -2.1434    0.0000    0.0000 C   0  0  0  0  0  0  0  0  0  0  0
   -1.4289    0.4125    0.0000 C   0  0  0  0  0  0  0  0  0  0  0
   -1.4289    1.2375    0.0000 C   0  0  0  0  0  0  0  0  0  0  0
   -2.1434    1.6500    0.0000 C   0  0  0  0  0  0  0  0  0  0  0
   -0.7145    1.6500    0.0000 O   0  0  0  0  0  0  0  0  0  0  0
    0.0000    1.2375    0.0000 C   0  0  0  0  0  0  0  0  0  0  0
   -0.7145    0.0000    0.0000 N   0  0  0  0  0  0  0  0  0  0  0
   -0.7145   -0.8250    0.0000 C   0  0  0  0  0  0  0  0  0  0  0
   -1.4289   -1.2375    0.0000 C   0  0  0  0  0  0  0  0  0  0  0
   -1.4289   -2.0625    0.0000 C   0  0  0  0  0  0  0  0  0  0  0
   -0.7145   -2.4750    0.0000 N   0  0  0  0  0  0  0  0  0  0  0
    0.0000   -2.0625    0.0000 C   0  0  0  0  0  0  0  0  0  0  0
    0.0000   -1.2375    0.0000 N   0  0  0  0  0  0  0  0  0  0  0
   -2.1434   -0.8250    0.0000 Cl  0  0  0  0  0  0  0  0  0  0  0
    0.7145   -2.4750    0.0000 N   0  0  0  0  0  0  0  0  0  0  0
    1.4289   -2.0625    0.0000 C   0  0  0  0  0  0  0  0  0  0  0
    2.1434   -2.4750    0.0000 C   0  0  0  0  0  0  0  0  0  0  0
    2.8579   -2.0625    0.0000 C   0  0  0  0  0  0  0  0  0  0  0
    2.8579   -1.2375    0.0000 C   0  0  0  0  0  0  0  0  0  0  0
    2.1434   -0.8250    0.0000 C   0  0  0  0  0  0  0  0  0  0  0
    1.4289   -1.2375    0.0000 C   0  0  0  0  0  0  0  0  0  0  0
    2.1434   -3.3000    0.0000 O   0  0  0  0  0  0  0  0  0  0  0
    2.8579   -3.7125    0.0000 C   0  0  0  0  0  0  0  0  0  0  0
    3.5724   -0.8250    0.0000 N   0  0  0  0  0  0  0  0  0  0  0
    4.2868   -1.2375    0.0000 C   0  0  0  0  0  0  0  0  0  0  0
    5.0013   -0.8250    0.0000 C   0  0  0  0  0  0  0  0  0  0  0
    5.0013    0.0000    0.0000 N   0  0  0  0  0  0  0  0  0  0  0
    4.2868    0.4125    0.0000 C   0  0  0  0  0  0  0  0  0  0  0
    3.5724    0.0000    0.0000 C   0  0  0  0  0  0  0  0  0  0  0
    5.7158    0.4125    0.0000 C   0  0  0  0  0  0  0  0  0  0  0
    6.4302    0.0000    0.0000 C   0  0  0  0  0  0  0  0  0  0  0
    5.7158    1.2375    0.0000 O   0  0  0  0  0  0  0  0  0  0  0
    7.1447    0.4125    0.0000 O   0  0  0  0  0  0  0  0  0  0  0
  1  2  1  0  0  0  0
  2  3  1  0  0  0  0
  3  4  1  0  0  0  0
  3  5  2  0  0  0  0
  4  6  1  0  0  0  0
  6  7  1  0  0  0  0
  7  8  1  0  0  0  0
  8  9  1  0  0  0  0
  9 10  1  0  0  0  0
 10  4  1  0  0  0  0
  8 11  1  0  0  0  0
 11 12  4  0  0  0  0
 12 13  4  0  0  0  0
 13 14  4  0  0  0  0
 14 15  4  0  0  0  0
 15 16  4  0  0  0  0
 16 11  4  0  0  0  0
 15 17  1  0  0  0  0
 17 18  1  0  0  0  0
 14 19  1  0  0  0  0
 19 20  1  0  0  0  0
 20 21  4  0  0  0  0
 21 22  4  0  0  0  0
 22 23  4  0  0  0  0
 23 24  4  0  0  0  0
 24 25  4  0  0  0  0
 25 20  4  0  0  0  0
 21 26  1  0  0  0  0
 24 27  1  0  0  0  0
 27 28  1  0  0  0  0
 28 29  4  0  0  0  0
 29 30  4  0  0  0  0
 30 31  4  0  0  0  0
 31 32  4  0  0  0  0
 32 33  4  0  0  0  0
 33 28  4  0  0  0  0
 29 34  1  0  0  0  0
 34 35  1  0  0  0  0
 31 36  1  0  0  0  0
 36 37  1  0  0  0  0
 37 38  1  0  0  0  0
 38 39  1  0  0  0  0
 39 40  1  0  0  0  0
 40 41  1  0  0  0  0
 41 36  1  0  0  0  0
 39 42  1  0  0  0  0
 42 43  1  0  0  0  0
 42 44  2  0  0  0  0
 43 45  1  0  0  0  0
M  END
> <From>
www.bindingDB.org

> <BindingDB Reactant_set_id>
345754

> <Ligand InChI>
InChI=1S/C30H37ClN8O6/c1-44-25-15-20(36-7-11-38(12-8-36)27(42)18-40)3-5-23(25)33-29-22(31)17-32-30(35-29)34-24-6-4-21(16-26(24)45-2)37-9-13-39(14-10-37)28(43)19-41/h3-6,15-17,40-41H,7-14,18-19H2,1-2H3,(H2,32,33,34,35)

> <Ligand InChI Key>
LSPTVTUYIRABOK-UHFFFAOYSA-N

> <BindingDB MonomerID>
193498

> <BindingDB Ligand Name>
US9199944, 80

> <Target Name Assigned by Curator or DataSource>
ALK tyrosine kinase receptor

> <Target Source Organism According to Curator or DataSource>
Homo sapiens

> <Ki (nM)>


> <IC50 (nM)>
 6

> <Kd (nM)>


> <EC50 (nM)>


> <kon (M-1-s-1)>


> <koff (s-1)>


> <pH>


> <Temp C>
25.00

> <Curation/DataSource>
US Patent

> <Article DOI>


> <PMID>


> <PubChem AID>


> <Patent Number>
US9199944

> <Authors>
Lee, K; Kim, HR; Park, CH; Lee, CO; Lee, JK; Jung, HJ; Cho, SY; Chae, CH; Choi, SU; Ha, JD

> <Institution>
KOREA RESEARCH INSTITUTE OF CHEMICAL TECHNOLOGY

> <Link to Ligand in BindingDB>
http://www.bindingdb.org/bind/chemsearch/marvin/MolStructure.jsp?monomerid=193498

> <Link to Ligand-Target Pair in BindingDB>
http://www.bindingdb.org/jsp/dbsearch/PrimarySearch_ki.jsp?energyterm=kJ/mole&tag=pol&polymerid=5809&target=ALK+tyrosine+kinase+receptor&column=ki&startPg=0&Increment=50&submit=Search

> <Link to Ligand-Target Pair in BindingDB>
http://www.bindingdb.org/jsp/dbsearch/PrimarySearch_ki.jsp?energyterm=kJ/mole&tag=r21&monomerid=193498&enzyme=ALK+tyrosine+kinase+receptor&column=ki&startPg=0&Increment=50&submit=Search

> <Ligand HET ID in PDB>


> <PDB ID(s) for Ligand-Target Complex>


> <PubChem CID>
118119579

> <PubChem SID>
317230818

> <ChEBI ID of Ligand>


> <ChEMBL ID of Ligand>


> <DrugBank ID of Ligand>


> <IUPHAR_GRAC ID of Ligand>


> <KEGG ID of Ligand>


> <ZINC ID of Ligand>


> <Number of Protein Chains in Target (>1 implies a multichain complex)>
1

> <BindingDB Target Chain Sequence>
MGAIGLLWLLPLLLSTAAVGSGMGTGQRAGSPAAGPPLQPREPLSYSRLQRKSLAVDFVVPSLFRVYARDLLLPPSSSELKAGRPEARGSLALDCAPLLRLLGPAPGVSWTAGSPAPAEARTLSRVLKGGSVRKLRRAKQLVLELGEEAILEGCVGPPGEAAVGLLQFNLSELFSWWIRQGEGRLRIRLMPEKKASEVGREGRLSAAIRASQPRLLFQIFGTGHSSLESPTNMPSPSPDYFTWNLTWIMKDSFPFLSHRSRYGLECSFDFPCELEYSPPLHDLRNQSWSWRRIPSEEASQMDLLDGPGAERSKEMPRGSFLLLNTSADSKHTILSPWMRSSSEHCTLAVSVHRHLQPSGRYIAQLLPHNEAAREILLMPTPGKHGWTVLQGRIGRPDNPFRVALEYISSGNRSLSAVDFFALKNCSEGTSPGSKMALQSSFTCWNGTVLQLGQACDFHQDCAQGEDESQMCRKLPVGFYCNFEDGFCGWTQGTLSPHTPQWQVRTLKDARFQDHQDHALLLSTTDVPASESATVTSATFPAPIKSSPCELRMSWLIRGVLRGNVSLVLVENKTGKEQGRMVWHVAAYEGLSLWQWMVLPLLDVSDRFWLQMVAWWGQGSRAIVAFDNISISLDCYLTISGEDKILQNTAPKSRNLFERNPNKELKPGENSPRQTPIFDPTVHWLFTTCGASGPHGPTQAQCNNAYQNSNLSVEVGSEGPLKGIQIWKVPATDTYSISGYGAAGGKGGKNTMMRSHGVSVLGIFNLEKDDMLYILVGQQGEDACPSTNQLIQKVCIGENNVIEEEIRVNRSVHEWAGGGGGGGGATYVFKMKDGVPVPLIIAAGGGGRAYGAKTDTFHPERLENNSSVLGLNGNSGAAGGGGGWNDNTSLLWAGKSLQEGATGGHSCPQAMKKWGWETRGGFGGGGGGCSSGGGGGGYIGGNAASNNDPEMDGEDGVSFISPLGILYTPALKVMEGHGEVNIKHYLNCSHCEVDECHMDPESHKVICFCDHGTVLAEDGVSCIVSPTPEPHLPLSLILSVVTSALVAALVLAFSGIMIVYRRKHQELQAMQMELQSPEYKLSKLRTSTIMTDYNPNYCFAGKTSSISDLKEVPRKNITLIRGLGHGAFGEVYEGQVSGMPNDPSPLQVAVKTLPEVCSEQDELDFLMEALIISKFNHQNIVRCIGVSLQSLPRFILLELMAGGDLKSFLRETRPRPSQPSSLAMLDLLHVARDIACGCQYLEENHFIHRDIAARNCLLTCPGPGRVAKIGDFGMARDIYRASYYRKGGCAMLPVKWMPPEAFMEGIFTSKTDTWSFGVLLWEIFSLGYMPYPSKSNQEVLEFVTSGGRMDPPKNCPGPVYRIMTQCWQHQPEDRPNFAIILERIEYCTQDPDVINTALPIEYGPLVEEEEKVPVRPKDPEGVPPLLVSQQAKREEERSPAAPPPLPTTSSGKAAKKPTAAEISVRVPRGPAVEGGHVNMAFSQSNPPSELHKVHGSRNKPTSLWNPTYGSWFTEKPTKKNNPIAKKEPHDRGNLGLEGSCTVPPNVATGRLPGASLLLEPSSLTANMKEVPLFRLRHFPCGNVNYGYQQQGLPLEAATAPGAGHYEDTILKSKNSMNQPGP

> <PDB ID(s) of Target Chain>
2XB7,2XBA,3AOX,5FTO,5FTQ,6E0R,6EBW,6EDL,6MX8

> <UniProt (SwissProt) Recommended Name of Target Chain>
ALK tyrosine kinase receptor

> <UniProt (SwissProt) Entry Name of Target Chain>
ALK_HUMAN

> <UniProt (SwissProt) Primary ID of Target Chain>
Q9UM73

> <UniProt (SwissProt) Secondary ID(s) of Target Chain>
Q4ZFX9,Q53QQ6,Q53RZ4,Q59FI3,Q9Y4K6

> <UniProt (SwissProt) Alternative ID(s) of Target Chain>


> <UniProt (TrEMBL) Submitted Name of Target Chain>


> <UniProt (TrEMBL) Entry Name of Target Chain>


> <UniProt (TrEMBL) Primary ID of Target Chain>


> <UniProt (TrEMBL) Secondary ID(s) of Target Chain>


> <UniProt (TrEMBL) Alternative ID(s) of Target Chain>


$$$$
00145001.cdx

Vconf v2.0 Academic SN VC001-00000579
 39 43  0  0  0  0  0  0  0  0999 V2000
   -5.7158    2.8875    0.0000 N   0  0  0  0  0  0  0  0  0  0  0
   -5.7158    2.0626    0.0000 C   0  0  0  0  0  0  0  0  0  0  0
   -5.0014    1.6500    0.0000 C   0  0  0  0  0  0  0  0  0  0  0
   -4.2869    2.0626    0.0000 N   0  0  0  0  0  0  0  0  0  0  0
   -4.2869    2.8875    0.0000 C   0  0  0  0  0  0  0  0  0  0  0
   -5.0014    3.3000    0.0000 C   0  0  0  0  0  0  0  0  0  0  0
   -3.5724    1.6500    0.0000 C   0  0  0  0  0  0  0  0  0  0  0
   -3.5724    0.8251    0.0000 C   0  0  0  0  0  0  0  0  0  0  0
   -2.8580    0.4125    0.0000 C   0  0  0  0  0  0  0  0  0  0  0
   -2.1434    0.8251    0.0000 C   0  0  0  0  0  0  0  0  0  0  0
   -2.1434    1.6500    0.0000 C   0  0  0  0  0  0  0  0  0  0  0
   -2.8580    2.0626    0.0000 C   0  0  0  0  0  0  0  0  0  0  0
   -1.4289    2.0626    0.0000 F   0  0  0  0  0  0  0  0  0  0  0
   -1.4289    0.4125    0.0000 N   0  0  0  0  0  0  0  0  0  0  0
   -1.4289   -0.4125    0.0000 C   0  0  0  0  0  0  0  0  0  0  0
   -2.1434   -0.8250    0.0000 C   0  0  0  0  0  0  0  0  0  0  0
   -2.1434   -1.6500    0.0000 C   0  0  0  0  0  0  0  0  0  0  0
   -1.4289   -2.0626    0.0000 N   0  0  0  0  0  0  0  0  0  0  0
   -0.7145   -1.6500    0.0000 C   0  0  0  0  0  0  0  0  0  0  0
   -0.7145   -0.8250    0.0000 N   0  0  0  0  0  0  0  0  0  0  0
   -2.8580   -0.4125    0.0000 Cl  0  0  0  0  0  0  0  0  0  0  0
    0.0000   -2.0626    0.0000 N   0  0  0  0  0  0  0  0  0  0  0
    0.7145   -1.6500    0.0000 C   0  0  0  0  0  0  0  0  0  0  0
    1.4289   -2.0626    0.0000 C   0  0  0  0  0  0  0  0  0  0  0
    2.1434   -1.6500    0.0000 C   0  0  0  0  0  0  0  0  0  0  0
    2.1434   -0.8250    0.0000 C   0  0  0  0  0  0  0  0  0  0  0
    1.4289   -0.4125    0.0000 C   0  0  0  0  0  0  0  0  0  0  0
    0.7145   -0.8250    0.0000 C   0  0  0  0  0  0  0  0  0  0  0
    1.4289   -2.8875    0.0000 O   0  0  0  0  0  0  0  0  0  0  0
    2.1434   -3.3000    0.0000 C   0  0  0  0  0  0  0  0  0  0  0
    2.8580   -0.4125    0.0000 N   0  0  0  0  0  0  0  0  0  0  0
    3.5724   -0.8250    0.0000 C   0  0  0  0  0  0  0  0  0  0  0
    4.2869   -0.4125    0.0000 C   0  0  0  0  0  0  0  0  0  0  0
    4.2869    0.4125    0.0000 N   0  0  0  0  0  0  0  0  0  0  0
    3.5724    0.8251    0.0000 C   0  0  0  0  0  0  0  0  0  0  0
    2.8580    0.4125    0.0000 C   0  0  0  0  0  0  0  0  0  0  0
    5.0014    0.8251    0.0000 C   0  0  0  0  0  0  0  0  0  0  0
    5.7158    0.4125    0.0000 C   0  0  0  0  0  0  0  0  0  0  0
    5.0014    1.6500    0.0000 O   0  0  0  0  0  0  0  0  0  0  0
  1  2  1  0  0  0  0
  2  3  1  0  0  0  0
  3  4  1  0  0  0  0
  4  5  1  0  0  0  0
  5  6  1  0  0  0  0
  6  1  1  0  0  0  0
  4  7  1  0  0  0  0
  7  8  4  0  0  0  0
  8  9  4  0  0  0  0
  9 10  4  0  0  0  0
 10 11  4  0  0  0  0
 11 12  4  0  0  0  0
 12  7  4  0  0  0  0
 11 13  1  0  0  0  0
 10 14  1  0  0  0  0
 14 15  1  0  0  0  0
 15 16  4  0  0  0  0
 16 17  4  0  0  0  0
 17 18  4  0  0  0  0
 18 19  4  0  0  0  0
 19 20  4  0  0  0  0
 20 15  4  0  0  0  0
 16 21  1  0  0  0  0
 19 22  1  0  0  0  0
 22 23  1  0  0  0  0
 23 24  4  0  0  0  0
 24 25  4  0  0  0  0
 25 26  4  0  0  0  0
 26 27  4  0  0  0  0
 27 28  4  0  0  0  0
 28 23  4  0  0  0  0
 24 29  1  0  0  0  0
 29 30  1  0  0  0  0
 26 31  1  0  0  0  0
 31 32  1  0  0  0  0
 32 33  1  0  0  0  0
 33 34  1  0  0  0  0
 34 35  1  0  0  0  0
 35 36  1  0  0  0  0
 36 31  1  0  0  0  0
 34 37  1  0  0  0  0
 37 38  1  0  0  0  0
 37 39  2  0  0  0  0
M  END
> <From>
www.bindingDB.org

> <BindingDB Reactant_set_id>
345755

> <Ligand InChI>
InChI=1S/C27H32ClFN8O2/c1-18(38)35-11-13-37(14-12-35)20-4-6-24(25(16-20)39-2)33-27-31-17-21(28)26(34-27)32-23-5-3-19(15-22(23)29)36-9-7-30-8-10-36/h3-6,15-17,30H,7-14H2,1-2H3,(H2,31,32,33,34)

> <Ligand InChI Key>
VXUCSRHWYFPCTF-UHFFFAOYSA-N

> <BindingDB MonomerID>
193499

> <BindingDB Ligand Name>
US9199944, 81

> <Target Name Assigned by Curator or DataSource>
ALK tyrosine kinase receptor

> <Target Source Organism According to Curator or DataSource>
Homo sapiens

> <Ki (nM)>


> <IC50 (nM)>
 17

> <Kd (nM)>


> <EC50 (nM)>


> <kon (M-1-s-1)>


> <koff (s-1)>


> <pH>


> <Temp C>
25.00

> <Curation/DataSource>
US Patent

> <Article DOI>


> <PMID>


> <PubChem AID>


> <Patent Number>
US9199944

> <Authors>
Lee, K; Kim, HR; Park, CH; Lee, CO; Lee, JK; Jung, HJ; Cho, SY; Chae, CH; Choi, SU; Ha, JD

> <Institution>
KOREA RESEARCH INSTITUTE OF CHEMICAL TECHNOLOGY

> <Link to Ligand in BindingDB>
http://www.bindingdb.org/bind/chemsearch/marvin/MolStructure.jsp?monomerid=193499

> <Link to Ligand-Target Pair in BindingDB>
http://www.bindingdb.org/jsp/dbsearch/PrimarySearch_ki.jsp?energyterm=kJ/mole&tag=pol&polymerid=5809&target=ALK+tyrosine+kinase+receptor&column=ki&startPg=0&Increment=50&submit=Search

> <Link to Ligand-Target Pair in BindingDB>
http://www.bindingdb.org/jsp/dbsearch/PrimarySearch_ki.jsp?energyterm=kJ/mole&tag=r21&monomerid=193499&enzyme=ALK+tyrosine+kinase+receptor&column=ki&startPg=0&Increment=50&submit=Search

> <Ligand HET ID in PDB>


> <PDB ID(s) for Ligand-Target Complex>


> <PubChem CID>
118105646

> <PubChem SID>
317230819

> <ChEBI ID of Ligand>


> <ChEMBL ID of Ligand>


> <DrugBank ID of Ligand>


> <IUPHAR_GRAC ID of Ligand>


> <KEGG ID of Ligand>


> <ZINC ID of Ligand>


> <Number of Protein Chains in Target (>1 implies a multichain complex)>
1

> <BindingDB Target Chain Sequence>
MGAIGLLWLLPLLLSTAAVGSGMGTGQRAGSPAAGPPLQPREPLSYSRLQRKSLAVDFVVPSLFRVYARDLLLPPSSSELKAGRPEARGSLALDCAPLLRLLGPAPGVSWTAGSPAPAEARTLSRVLKGGSVRKLRRAKQLVLELGEEAILEGCVGPPGEAAVGLLQFNLSELFSWWIRQGEGRLRIRLMPEKKASEVGREGRLSAAIRASQPRLLFQIFGTGHSSLESPTNMPSPSPDYFTWNLTWIMKDSFPFLSHRSRYGLECSFDFPCELEYSPPLHDLRNQSWSWRRIPSEEASQMDLLDGPGAERSKEMPRGSFLLLNTSADSKHTILSPWMRSSSEHCTLAVSVHRHLQPSGRYIAQLLPHNEAAREILLMPTPGKHGWTVLQGRIGRPDNPFRVALEYISSGNRSLSAVDFFALKNCSEGTSPGSKMALQSSFTCWNGTVLQLGQACDFHQDCAQGEDESQMCRKLPVGFYCNFEDGFCGWTQGTLSPHTPQWQVRTLKDARFQDHQDHALLLSTTDVPASESATVTSATFPAPIKSSPCELRMSWLIRGVLRGNVSLVLVENKTGKEQGRMVWHVAAYEGLSLWQWMVLPLLDVSDRFWLQMVAWWGQGSRAIVAFDNISISLDCYLTISGEDKILQNTAPKSRNLFERNPNKELKPGENSPRQTPIFDPTVHWLFTTCGASGPHGPTQAQCNNAYQNSNLSVEVGSEGPLKGIQIWKVPATDTYSISGYGAAGGKGGKNTMMRSHGVSVLGIFNLEKDDMLYILVGQQGEDACPSTNQLIQKVCIGENNVIEEEIRVNRSVHEWAGGGGGGGGATYVFKMKDGVPVPLIIAAGGGGRAYGAKTDTFHPERLENNSSVLGLNGNSGAAGGGGGWNDNTSLLWAGKSLQEGATGGHSCPQAMKKWGWETRGGFGGGGGGCSSGGGGGGYIGGNAASNNDPEMDGEDGVSFISPLGILYTPALKVMEGHGEVNIKHYLNCSHCEVDECHMDPESHKVICFCDHGTVLAEDGVSCIVSPTPEPHLPLSLILSVVTSALVAALVLAFSGIMIVYRRKHQELQAMQMELQSPEYKLSKLRTSTIMTDYNPNYCFAGKTSSISDLKEVPRKNITLIRGLGHGAFGEVYEGQVSGMPNDPSPLQVAVKTLPEVCSEQDELDFLMEALIISKFNHQNIVRCIGVSLQSLPRFILLELMAGGDLKSFLRETRPRPSQPSSLAMLDLLHVARDIACGCQYLEENHFIHRDIAARNCLLTCPGPGRVAKIGDFGMARDIYRASYYRKGGCAMLPVKWMPPEAFMEGIFTSKTDTWSFGVLLWEIFSLGYMPYPSKSNQEVLEFVTSGGRMDPPKNCPGPVYRIMTQCWQHQPEDRPNFAIILERIEYCTQDPDVINTALPIEYGPLVEEEEKVPVRPKDPEGVPPLLVSQQAKREEERSPAAPPPLPTTSSGKAAKKPTAAEISVRVPRGPAVEGGHVNMAFSQSNPPSELHKVHGSRNKPTSLWNPTYGSWFTEKPTKKNNPIAKKEPHDRGNLGLEGSCTVPPNVATGRLPGASLLLEPSSLTANMKEVPLFRLRHFPCGNVNYGYQQQGLPLEAATAPGAGHYEDTILKSKNSMNQPGP

> <PDB ID(s) of Target Chain>
2XB7,2XBA,3AOX,5FTO,5FTQ,6E0R,6EBW,6EDL,6MX8

> <UniProt (SwissProt) Recommended Name of Target Chain>
ALK tyrosine kinase receptor

> <UniProt (SwissProt) Entry Name of Target Chain>
ALK_HUMAN

> <UniProt (SwissProt) Primary ID of Target Chain>
Q9UM73

> <UniProt (SwissProt) Secondary ID(s) of Target Chain>
Q4ZFX9,Q53QQ6,Q53RZ4,Q59FI3,Q9Y4K6

> <UniProt (SwissProt) Alternative ID(s) of Target Chain>


> <UniProt (TrEMBL) Submitted Name of Target Chain>


> <UniProt (TrEMBL) Entry Name of Target Chain>


> <UniProt (TrEMBL) Primary ID of Target Chain>


> <UniProt (TrEMBL) Secondary ID(s) of Target Chain>


> <UniProt (TrEMBL) Alternative ID(s) of Target Chain>


$$$$
00146001.cdx

Vconf v2.0 Academic SN VC001-00000579
 42 46  0  0  0  0  0  0  0  0999 V2000
   -6.4302    2.4750    0.0000 C   0  0  0  0  0  0  0  0  0  0  0
   -5.7157    2.8875    0.0000 C   0  0  0  0  0  0  0  0  0  0  0
   -5.0013    2.4750    0.0000 N   0  0  0  0  0  0  0  0  0  0  0
   -5.7157    3.7125    0.0000 O   0  0  0  0  0  0  0  0  0  0  0
   -5.0013    1.6499    0.0000 C   0  0  0  0  0  0  0  0  0  0  0
   -4.2868    1.2374    0.0000 C   0  0  0  0  0  0  0  0  0  0  0
   -3.5723    1.6499    0.0000 N   0  0  0  0  0  0  0  0  0  0  0
   -3.5723    2.4750    0.0000 C   0  0  0  0  0  0  0  0  0  0  0
   -4.2868    2.8875    0.0000 C   0  0  0  0  0  0  0  0  0  0  0
   -2.8578    1.2374    0.0000 C   0  0  0  0  0  0  0  0  0  0  0
   -2.8578    0.4125    0.0000 C   0  0  0  0  0  0  0  0  0  0  0
   -2.1434    0.0000    0.0000 C   0  0  0  0  0  0  0  0  0  0  0
   -1.4290    0.4125    0.0000 C   0  0  0  0  0  0  0  0  0  0  0
   -1.4290    1.2374    0.0000 C   0  0  0  0  0  0  0  0  0  0  0
   -2.1434    1.6499    0.0000 C   0  0  0  0  0  0  0  0  0  0  0
   -0.7145    1.6499    0.0000 F   0  0  0  0  0  0  0  0  0  0  0
   -0.7145    0.0000    0.0000 N   0  0  0  0  0  0  0  0  0  0  0
   -0.7145   -0.8250    0.0000 C   0  0  0  0  0  0  0  0  0  0  0
   -1.4290   -1.2374    0.0000 C   0  0  0  0  0  0  0  0  0  0  0
   -1.4290   -2.0625    0.0000 C   0  0  0  0  0  0  0  0  0  0  0
   -0.7145   -2.4750    0.0000 N   0  0  0  0  0  0  0  0  0  0  0
    0.0000   -2.0625    0.0000 C   0  0  0  0  0  0  0  0  0  0  0
    0.0000   -1.2374    0.0000 N   0  0  0  0  0  0  0  0  0  0  0
   -2.1434   -0.8250    0.0000 Cl  0  0  0  0  0  0  0  0  0  0  0
    0.7145   -2.4750    0.0000 N   0  0  0  0  0  0  0  0  0  0  0
    1.4290   -2.0625    0.0000 C   0  0  0  0  0  0  0  0  0  0  0
    2.1434   -2.4750    0.0000 C   0  0  0  0  0  0  0  0  0  0  0
    2.8578   -2.0625    0.0000 C   0  0  0  0  0  0  0  0  0  0  0
    2.8578   -1.2374    0.0000 C   0  0  0  0  0  0  0  0  0  0  0
    2.1434   -0.8250    0.0000 C   0  0  0  0  0  0  0  0  0  0  0
    1.4290   -1.2374    0.0000 C   0  0  0  0  0  0  0  0  0  0  0
    2.1434   -3.3000    0.0000 O   0  0  0  0  0  0  0  0  0  0  0
    2.8578   -3.7125    0.0000 C   0  0  0  0  0  0  0  0  0  0  0
    3.5723   -0.8250    0.0000 N   0  0  0  0  0  0  0  0  0  0  0
    4.2868   -1.2374    0.0000 C   0  0  0  0  0  0  0  0  0  0  0
    5.0013   -0.8250    0.0000 C   0  0  0  0  0  0  0  0  0  0  0
    5.0013    0.0000    0.0000 N   0  0  0  0  0  0  0  0  0  0  0
    4.2868    0.4125    0.0000 C   0  0  0  0  0  0  0  0  0  0  0
    3.5723    0.0000    0.0000 C   0  0  0  0  0  0  0  0  0  0  0
    5.7157    0.4125    0.0000 C   0  0  0  0  0  0  0  0  0  0  0
    6.4302    0.0000    0.0000 C   0  0  0  0  0  0  0  0  0  0  0
    5.7157    1.2374    0.0000 O   0  0  0  0  0  0  0  0  0  0  0
  1  2  1  0  0  0  0
  2  3  1  0  0  0  0
  2  4  2  0  0  0  0
  3  5  1  0  0  0  0
  5  6  1  0  0  0  0
  6  7  1  0  0  0  0
  7  8  1  0  0  0  0
  8  9  1  0  0  0  0
  9  3  1  0  0  0  0
  7 10  1  0  0  0  0
 10 11  4  0  0  0  0
 11 12  4  0  0  0  0
 12 13  4  0  0  0  0
 13 14  4  0  0  0  0
 14 15  4  0  0  0  0
 15 10  4  0  0  0  0
 14 16  1  0  0  0  0
 13 17  1  0  0  0  0
 17 18  1  0  0  0  0
 18 19  4  0  0  0  0
 19 20  4  0  0  0  0
 20 21  4  0  0  0  0
 21 22  4  0  0  0  0
 22 23  4  0  0  0  0
 23 18  4  0  0  0  0
 19 24  1  0  0  0  0
 22 25  1  0  0  0  0
 25 26  1  0  0  0  0
 26 27  4  0  0  0  0
 27 28  4  0  0  0  0
 28 29  4  0  0  0  0
 29 30  4  0  0  0  0
 30 31  4  0  0  0  0
 31 26  4  0  0  0  0
 27 32  1  0  0  0  0
 32 33  1  0  0  0  0
 29 34  1  0  0  0  0
 34 35  1  0  0  0  0
 35 36  1  0  0  0  0
 36 37  1  0  0  0  0
 37 38  1  0  0  0  0
 38 39  1  0  0  0  0
 39 34  1  0  0  0  0
 37 40  1  0  0  0  0
 40 41  1  0  0  0  0
 40 42  2  0  0  0  0
M  END
> <From>
www.bindingDB.org

> <BindingDB Reactant_set_id>
345756

> <Ligand InChI>
InChI=1S/C29H34ClFN8O3/c1-19(40)36-8-12-38(13-9-36)21-4-6-25(24(31)16-21)33-28-23(30)18-32-29(35-28)34-26-7-5-22(17-27(26)42-3)39-14-10-37(11-15-39)20(2)41/h4-7,16-18H,8-15H2,1-3H3,(H2,32,33,34,35)

> <Ligand InChI Key>
XARGOQFTRRRXGT-UHFFFAOYSA-N

> <BindingDB MonomerID>
193500

> <BindingDB Ligand Name>
US9199944, 82

> <Target Name Assigned by Curator or DataSource>
ALK tyrosine kinase receptor

> <Target Source Organism According to Curator or DataSource>
Homo sapiens

> <Ki (nM)>


> <IC50 (nM)>
 11

> <Kd (nM)>


> <EC50 (nM)>


> <kon (M-1-s-1)>


> <koff (s-1)>


> <pH>


> <Temp C>
25.00

> <Curation/DataSource>
US Patent

> <Article DOI>


> <PMID>


> <PubChem AID>


> <Patent Number>
US9199944

> <Authors>
Lee, K; Kim, HR; Park, CH; Lee, CO; Lee, JK; Jung, HJ; Cho, SY; Chae, CH; Choi, SU; Ha, JD

> <Institution>
KOREA RESEARCH INSTITUTE OF CHEMICAL TECHNOLOGY

> <Link to Ligand in BindingDB>
http://www.bindingdb.org/bind/chemsearch/marvin/MolStructure.jsp?monomerid=193500

> <Link to Ligand-Target Pair in BindingDB>
http://www.bindingdb.org/jsp/dbsearch/PrimarySearch_ki.jsp?energyterm=kJ/mole&tag=pol&polymerid=5809&target=ALK+tyrosine+kinase+receptor&column=ki&startPg=0&Increment=50&submit=Search

> <Link to Ligand-Target Pair in BindingDB>
http://www.bindingdb.org/jsp/dbsearch/PrimarySearch_ki.jsp?energyterm=kJ/mole&tag=r21&monomerid=193500&enzyme=ALK+tyrosine+kinase+receptor&column=ki&startPg=0&Increment=50&submit=Search

> <Ligand HET ID in PDB>


> <PDB ID(s) for Ligand-Target Complex>


> <PubChem CID>
72547225

> <PubChem SID>
317230820

> <ChEBI ID of Ligand>


> <ChEMBL ID of Ligand>


> <DrugBank ID of Ligand>


> <IUPHAR_GRAC ID of Ligand>


> <KEGG ID of Ligand>


> <ZINC ID of Ligand>


> <Number of Protein Chains in Target (>1 implies a multichain complex)>
1

> <BindingDB Target Chain Sequence>
MGAIGLLWLLPLLLSTAAVGSGMGTGQRAGSPAAGPPLQPREPLSYSRLQRKSLAVDFVVPSLFRVYARDLLLPPSSSELKAGRPEARGSLALDCAPLLRLLGPAPGVSWTAGSPAPAEARTLSRVLKGGSVRKLRRAKQLVLELGEEAILEGCVGPPGEAAVGLLQFNLSELFSWWIRQGEGRLRIRLMPEKKASEVGREGRLSAAIRASQPRLLFQIFGTGHSSLESPTNMPSPSPDYFTWNLTWIMKDSFPFLSHRSRYGLECSFDFPCELEYSPPLHDLRNQSWSWRRIPSEEASQMDLLDGPGAERSKEMPRGSFLLLNTSADSKHTILSPWMRSSSEHCTLAVSVHRHLQPSGRYIAQLLPHNEAAREILLMPTPGKHGWTVLQGRIGRPDNPFRVALEYISSGNRSLSAVDFFALKNCSEGTSPGSKMALQSSFTCWNGTVLQLGQACDFHQDCAQGEDESQMCRKLPVGFYCNFEDGFCGWTQGTLSPHTPQWQVRTLKDARFQDHQDHALLLSTTDVPASESATVTSATFPAPIKSSPCELRMSWLIRGVLRGNVSLVLVENKTGKEQGRMVWHVAAYEGLSLWQWMVLPLLDVSDRFWLQMVAWWGQGSRAIVAFDNISISLDCYLTISGEDKILQNTAPKSRNLFERNPNKELKPGENSPRQTPIFDPTVHWLFTTCGASGPHGPTQAQCNNAYQNSNLSVEVGSEGPLKGIQIWKVPATDTYSISGYGAAGGKGGKNTMMRSHGVSVLGIFNLEKDDMLYILVGQQGEDACPSTNQLIQKVCIGENNVIEEEIRVNRSVHEWAGGGGGGGGATYVFKMKDGVPVPLIIAAGGGGRAYGAKTDTFHPERLENNSSVLGLNGNSGAAGGGGGWNDNTSLLWAGKSLQEGATGGHSCPQAMKKWGWETRGGFGGGGGGCSSGGGGGGYIGGNAASNNDPEMDGEDGVSFISPLGILYTPALKVMEGHGEVNIKHYLNCSHCEVDECHMDPESHKVICFCDHGTVLAEDGVSCIVSPTPEPHLPLSLILSVVTSALVAALVLAFSGIMIVYRRKHQELQAMQMELQSPEYKLSKLRTSTIMTDYNPNYCFAGKTSSISDLKEVPRKNITLIRGLGHGAFGEVYEGQVSGMPNDPSPLQVAVKTLPEVCSEQDELDFLMEALIISKFNHQNIVRCIGVSLQSLPRFILLELMAGGDLKSFLRETRPRPSQPSSLAMLDLLHVARDIACGCQYLEENHFIHRDIAARNCLLTCPGPGRVAKIGDFGMARDIYRASYYRKGGCAMLPVKWMPPEAFMEGIFTSKTDTWSFGVLLWEIFSLGYMPYPSKSNQEVLEFVTSGGRMDPPKNCPGPVYRIMTQCWQHQPEDRPNFAIILERIEYCTQDPDVINTALPIEYGPLVEEEEKVPVRPKDPEGVPPLLVSQQAKREEERSPAAPPPLPTTSSGKAAKKPTAAEISVRVPRGPAVEGGHVNMAFSQSNPPSELHKVHGSRNKPTSLWNPTYGSWFTEKPTKKNNPIAKKEPHDRGNLGLEGSCTVPPNVATGRLPGASLLLEPSSLTANMKEVPLFRLRHFPCGNVNYGYQQQGLPLEAATAPGAGHYEDTILKSKNSMNQPGP

> <PDB ID(s) of Target Chain>
2XB7,2XBA,3AOX,5FTO,5FTQ,6E0R,6EBW,6EDL,6MX8

> <UniProt (SwissProt) Recommended Name of Target Chain>
ALK tyrosine kinase receptor

> <UniProt (SwissProt) Entry Name of Target Chain>
ALK_HUMAN

> <UniProt (SwissProt) Primary ID of Target Chain>
Q9UM73

> <UniProt (SwissProt) Secondary ID(s) of Target Chain>
Q4ZFX9,Q53QQ6,Q53RZ4,Q59FI3,Q9Y4K6

> <UniProt (SwissProt) Alternative ID(s) of Target Chain>


> <UniProt (TrEMBL) Submitted Name of Target Chain>


> <UniProt (TrEMBL) Entry Name of Target Chain>


> <UniProt (TrEMBL) Primary ID of Target Chain>


> <UniProt (TrEMBL) Secondary ID(s) of Target Chain>


> <UniProt (TrEMBL) Alternative ID(s) of Target Chain>


$$$$
00147001.cdx

Vconf v2.0 Academic SN VC001-00000579
 44 48  0  0  0  0  0  0  0  0999 V2000
   -6.0732    3.7126    0.0000 O   0  0  0  0  0  0  0  0  0  0  0
   -6.0732    2.8876    0.0000 C   0  0  0  0  0  0  0  0  0  0  0
   -5.3587    2.4750    0.0000 N   0  0  0  0  0  0  0  0  0  0  0
   -6.7876    2.4750    0.0000 C   0  0  0  0  0  0  0  0  0  0  0
   -5.3587    1.6500    0.0000 C   0  0  0  0  0  0  0  0  0  0  0
   -4.6441    1.2375    0.0000 C   0  0  0  0  0  0  0  0  0  0  0
   -3.9296    1.6500    0.0000 N   0  0  0  0  0  0  0  0  0  0  0
   -3.9296    2.4750    0.0000 C   0  0  0  0  0  0  0  0  0  0  0
   -4.6441    2.8876    0.0000 C   0  0  0  0  0  0  0  0  0  0  0
   -3.2152    1.2375    0.0000 C   0  0  0  0  0  0  0  0  0  0  0
   -3.2152    0.4125    0.0000 C   0  0  0  0  0  0  0  0  0  0  0
   -2.5007    0.0000    0.0000 C   0  0  0  0  0  0  0  0  0  0  0
   -1.7862    0.4125    0.0000 C   0  0  0  0  0  0  0  0  0  0  0
   -1.7862    1.2375    0.0000 C   0  0  0  0  0  0  0  0  0  0  0
   -2.5007    1.6500    0.0000 C   0  0  0  0  0  0  0  0  0  0  0
   -1.0718    1.6500    0.0000 O   0  0  0  0  0  0  0  0  0  0  0
   -0.3573    1.2375    0.0000 C   0  0  0  0  0  0  0  0  0  0  0
   -1.0718    0.0000    0.0000 N   0  0  0  0  0  0  0  0  0  0  0
   -1.0718   -0.8250    0.0000 C   0  0  0  0  0  0  0  0  0  0  0
   -1.7862   -1.2375    0.0000 C   0  0  0  0  0  0  0  0  0  0  0
   -1.7862   -2.0625    0.0000 C   0  0  0  0  0  0  0  0  0  0  0
   -1.0718   -2.4750    0.0000 N   0  0  0  0  0  0  0  0  0  0  0
   -0.3573   -2.0625    0.0000 C   0  0  0  0  0  0  0  0  0  0  0
   -0.3573   -1.2375    0.0000 N   0  0  0  0  0  0  0  0  0  0  0
   -2.5007   -0.8250    0.0000 Cl  0  0  0  0  0  0  0  0  0  0  0
    0.3573   -2.4750    0.0000 N   0  0  0  0  0  0  0  0  0  0  0
    1.0718   -2.0625    0.0000 C   0  0  0  0  0  0  0  0  0  0  0
    1.7862   -2.4750    0.0000 C   0  0  0  0  0  0  0  0  0  0  0
    2.5007   -2.0625    0.0000 C   0  0  0  0  0  0  0  0  0  0  0
    2.5007   -1.2375    0.0000 C   0  0  0  0  0  0  0  0  0  0  0
    1.7862   -0.8250    0.0000 C   0  0  0  0  0  0  0  0  0  0  0
    1.0718   -1.2375    0.0000 C   0  0  0  0  0  0  0  0  0  0  0
    1.7862   -3.3001    0.0000 O   0  0  0  0  0  0  0  0  0  0  0
    2.5007   -3.7126    0.0000 C   0  0  0  0  0  0  0  0  0  0  0
    3.2152   -0.8250    0.0000 N   0  0  0  0  0  0  0  0  0  0  0
    3.9296   -1.2375    0.0000 C   0  0  0  0  0  0  0  0  0  0  0
    4.6441   -0.8250    0.0000 C   0  0  0  0  0  0  0  0  0  0  0
    4.6441    0.0000    0.0000 N   0  0  0  0  0  0  0  0  0  0  0
    3.9296    0.4125    0.0000 C   0  0  0  0  0  0  0  0  0  0  0
    3.2152    0.0000    0.0000 C   0  0  0  0  0  0  0  0  0  0  0
    5.3587    0.4125    0.0000 C   0  0  0  0  0  0  0  0  0  0  0
    6.0732    0.0000    0.0000 C   0  0  0  0  0  0  0  0  0  0  0
    5.3587    1.2375    0.0000 O   0  0  0  0  0  0  0  0  0  0  0
    6.7876    0.4125    0.0000 O   0  0  0  0  0  0  0  0  0  0  0
  1  2  2  0  0  0  0
  2  3  1  0  0  0  0
  2  4  1  0  0  0  0
  3  5  1  0  0  0  0
  5  6  1  0  0  0  0
  6  7  1  0  0  0  0
  7  8  1  0  0  0  0
  8  9  1  0  0  0  0
  9  3  1  0  0  0  0
  7 10  1  0  0  0  0
 10 11  4  0  0  0  0
 11 12  4  0  0  0  0
 12 13  4  0  0  0  0
 13 14  4  0  0  0  0
 14 15  4  0  0  0  0
 15 10  4  0  0  0  0
 14 16  1  0  0  0  0
 16 17  1  0  0  0  0
 13 18  1  0  0  0  0
 18 19  1  0  0  0  0
 19 20  4  0  0  0  0
 20 21  4  0  0  0  0
 21 22  4  0  0  0  0
 22 23  4  0  0  0  0
 23 24  4  0  0  0  0
 24 19  4  0  0  0  0
 20 25  1  0  0  0  0
 23 26  1  0  0  0  0
 26 27  1  0  0  0  0
 27 28  4  0  0  0  0
 28 29  4  0  0  0  0
 29 30  4  0  0  0  0
 30 31  4  0  0  0  0
 31 32  4  0  0  0  0
 32 27  4  0  0  0  0
 28 33  1  0  0  0  0
 33 34  1  0  0  0  0
 30 35  1  0  0  0  0
 35 36  1  0  0  0  0
 36 37  1  0  0  0  0
 37 38  1  0  0  0  0
 38 39  1  0  0  0  0
 39 40  1  0  0  0  0
 40 35  1  0  0  0  0
 38 41  1  0  0  0  0
 41 42  1  0  0  0  0
 41 43  2  0  0  0  0
 42 44  1  0  0  0  0
M  END
> <From>
www.bindingDB.org

> <BindingDB Reactant_set_id>
345757

> <Ligand InChI>
InChI=1S/C30H37ClN8O5/c1-20(41)36-8-10-37(11-9-36)21-4-6-24(26(16-21)43-2)33-29-23(31)18-32-30(35-29)34-25-7-5-22(17-27(25)44-3)38-12-14-39(15-13-38)28(42)19-40/h4-7,16-18,40H,8-15,19H2,1-3H3,(H2,32,33,34,35)

> <Ligand InChI Key>
GOTFFNLIUCVVSS-UHFFFAOYSA-N

> <BindingDB MonomerID>
193501

> <BindingDB Ligand Name>
US9199944, 83

> <Target Name Assigned by Curator or DataSource>
ALK tyrosine kinase receptor

> <Target Source Organism According to Curator or DataSource>
Homo sapiens

> <Ki (nM)>


> <IC50 (nM)>
 4

> <Kd (nM)>


> <EC50 (nM)>


> <kon (M-1-s-1)>


> <koff (s-1)>


> <pH>


> <Temp C>
25.00

> <Curation/DataSource>
US Patent

> <Article DOI>


> <PMID>


> <PubChem AID>


> <Patent Number>
US9199944

> <Authors>
Lee, K; Kim, HR; Park, CH; Lee, CO; Lee, JK; Jung, HJ; Cho, SY; Chae, CH; Choi, SU; Ha, JD

> <Institution>
KOREA RESEARCH INSTITUTE OF CHEMICAL TECHNOLOGY

> <Link to Ligand in BindingDB>
http://www.bindingdb.org/bind/chemsearch/marvin/MolStructure.jsp?monomerid=193501

> <Link to Ligand-Target Pair in BindingDB>
http://www.bindingdb.org/jsp/dbsearch/PrimarySearch_ki.jsp?energyterm=kJ/mole&tag=pol&polymerid=5809&target=ALK+tyrosine+kinase+receptor&column=ki&startPg=0&Increment=50&submit=Search

> <Link to Ligand-Target Pair in BindingDB>
http://www.bindingdb.org/jsp/dbsearch/PrimarySearch_ki.jsp?energyterm=kJ/mole&tag=r21&monomerid=193501&enzyme=ALK+tyrosine+kinase+receptor&column=ki&startPg=0&Increment=50&submit=Search

> <Ligand HET ID in PDB>


> <PDB ID(s) for Ligand-Target Complex>


> <PubChem CID>
118105649

> <PubChem SID>
317230821

> <ChEBI ID of Ligand>


> <ChEMBL ID of Ligand>


> <DrugBank ID of Ligand>


> <IUPHAR_GRAC ID of Ligand>


> <KEGG ID of Ligand>


> <ZINC ID of Ligand>


> <Number of Protein Chains in Target (>1 implies a multichain complex)>
1

> <BindingDB Target Chain Sequence>
MGAIGLLWLLPLLLSTAAVGSGMGTGQRAGSPAAGPPLQPREPLSYSRLQRKSLAVDFVVPSLFRVYARDLLLPPSSSELKAGRPEARGSLALDCAPLLRLLGPAPGVSWTAGSPAPAEARTLSRVLKGGSVRKLRRAKQLVLELGEEAILEGCVGPPGEAAVGLLQFNLSELFSWWIRQGEGRLRIRLMPEKKASEVGREGRLSAAIRASQPRLLFQIFGTGHSSLESPTNMPSPSPDYFTWNLTWIMKDSFPFLSHRSRYGLECSFDFPCELEYSPPLHDLRNQSWSWRRIPSEEASQMDLLDGPGAERSKEMPRGSFLLLNTSADSKHTILSPWMRSSSEHCTLAVSVHRHLQPSGRYIAQLLPHNEAAREILLMPTPGKHGWTVLQGRIGRPDNPFRVALEYISSGNRSLSAVDFFALKNCSEGTSPGSKMALQSSFTCWNGTVLQLGQACDFHQDCAQGEDESQMCRKLPVGFYCNFEDGFCGWTQGTLSPHTPQWQVRTLKDARFQDHQDHALLLSTTDVPASESATVTSATFPAPIKSSPCELRMSWLIRGVLRGNVSLVLVENKTGKEQGRMVWHVAAYEGLSLWQWMVLPLLDVSDRFWLQMVAWWGQGSRAIVAFDNISISLDCYLTISGEDKILQNTAPKSRNLFERNPNKELKPGENSPRQTPIFDPTVHWLFTTCGASGPHGPTQAQCNNAYQNSNLSVEVGSEGPLKGIQIWKVPATDTYSISGYGAAGGKGGKNTMMRSHGVSVLGIFNLEKDDMLYILVGQQGEDACPSTNQLIQKVCIGENNVIEEEIRVNRSVHEWAGGGGGGGGATYVFKMKDGVPVPLIIAAGGGGRAYGAKTDTFHPERLENNSSVLGLNGNSGAAGGGGGWNDNTSLLWAGKSLQEGATGGHSCPQAMKKWGWETRGGFGGGGGGCSSGGGGGGYIGGNAASNNDPEMDGEDGVSFISPLGILYTPALKVMEGHGEVNIKHYLNCSHCEVDECHMDPESHKVICFCDHGTVLAEDGVSCIVSPTPEPHLPLSLILSVVTSALVAALVLAFSGIMIVYRRKHQELQAMQMELQSPEYKLSKLRTSTIMTDYNPNYCFAGKTSSISDLKEVPRKNITLIRGLGHGAFGEVYEGQVSGMPNDPSPLQVAVKTLPEVCSEQDELDFLMEALIISKFNHQNIVRCIGVSLQSLPRFILLELMAGGDLKSFLRETRPRPSQPSSLAMLDLLHVARDIACGCQYLEENHFIHRDIAARNCLLTCPGPGRVAKIGDFGMARDIYRASYYRKGGCAMLPVKWMPPEAFMEGIFTSKTDTWSFGVLLWEIFSLGYMPYPSKSNQEVLEFVTSGGRMDPPKNCPGPVYRIMTQCWQHQPEDRPNFAIILERIEYCTQDPDVINTALPIEYGPLVEEEEKVPVRPKDPEGVPPLLVSQQAKREEERSPAAPPPLPTTSSGKAAKKPTAAEISVRVPRGPAVEGGHVNMAFSQSNPPSELHKVHGSRNKPTSLWNPTYGSWFTEKPTKKNNPIAKKEPHDRGNLGLEGSCTVPPNVATGRLPGASLLLEPSSLTANMKEVPLFRLRHFPCGNVNYGYQQQGLPLEAATAPGAGHYEDTILKSKNSMNQPGP

> <PDB ID(s) of Target Chain>
2XB7,2XBA,3AOX,5FTO,5FTQ,6E0R,6EBW,6EDL,6MX8

> <UniProt (SwissProt) Recommended Name of Target Chain>
ALK tyrosine kinase receptor

> <UniProt (SwissProt) Entry Name of Target Chain>
ALK_HUMAN

> <UniProt (SwissProt) Primary ID of Target Chain>
Q9UM73

> <UniProt (SwissProt) Secondary ID(s) of Target Chain>
Q4ZFX9,Q53QQ6,Q53RZ4,Q59FI3,Q9Y4K6

> <UniProt (SwissProt) Alternative ID(s) of Target Chain>


> <UniProt (TrEMBL) Submitted Name of Target Chain>


> <UniProt (TrEMBL) Entry Name of Target Chain>


> <UniProt (TrEMBL) Primary ID of Target Chain>


> <UniProt (TrEMBL) Secondary ID(s) of Target Chain>


> <UniProt (TrEMBL) Alternative ID(s) of Target Chain>


$$$$
00148001.cdx

Vconf v2.0 Academic SN VC001-00000579
 44 48  0  0  0  0  0  0  0  0999 V2000
   -6.0734    3.7127    0.0000 O   0  0  0  0  0  0  0  0  0  0  0
   -6.0734    2.8876    0.0000 C   0  0  0  0  0  0  0  0  0  0  0
   -5.3588    2.4751    0.0000 N   0  0  0  0  0  0  0  0  0  0  0
   -6.7878    2.4751    0.0000 C   0  0  0  0  0  0  0  0  0  0  0
   -5.3588    1.6501    0.0000 C   0  0  0  0  0  0  0  0  0  0  0
   -4.6443    1.2376    0.0000 C   0  0  0  0  0  0  0  0  0  0  0
   -3.9298    1.6501    0.0000 N   0  0  0  0  0  0  0  0  0  0  0
   -3.9298    2.4751    0.0000 C   0  0  0  0  0  0  0  0  0  0  0
   -4.6443    2.8876    0.0000 C   0  0  0  0  0  0  0  0  0  0  0
   -3.2153    1.2376    0.0000 C   0  0  0  0  0  0  0  0  0  0  0
   -3.2153    0.4125    0.0000 C   0  0  0  0  0  0  0  0  0  0  0
   -2.5007    0.0000    0.0000 C   0  0  0  0  0  0  0  0  0  0  0
   -1.7863    0.4125    0.0000 C   0  0  0  0  0  0  0  0  0  0  0
   -1.7863    1.2376    0.0000 C   0  0  0  0  0  0  0  0  0  0  0
   -2.5007    1.6501    0.0000 C   0  0  0  0  0  0  0  0  0  0  0
   -1.0718    1.6501    0.0000 O   0  0  0  0  0  0  0  0  0  0  0
   -0.3573    1.2376    0.0000 C   0  0  0  0  0  0  0  0  0  0  0
   -1.0718    0.0000    0.0000 N   0  0  0  0  0  0  0  0  0  0  0
   -1.0718   -0.8250    0.0000 C   0  0  0  0  0  0  0  0  0  0  0
   -1.7863   -1.2376    0.0000 C   0  0  0  0  0  0  0  0  0  0  0
   -1.7863   -2.0626    0.0000 C   0  0  0  0  0  0  0  0  0  0  0
   -1.0718   -2.4751    0.0000 N   0  0  0  0  0  0  0  0  0  0  0
   -0.3573   -2.0626    0.0000 C   0  0  0  0  0  0  0  0  0  0  0
   -0.3573   -1.2376    0.0000 N   0  0  0  0  0  0  0  0  0  0  0
   -2.5007   -0.8250    0.0000 Cl  0  0  0  0  0  0  0  0  0  0  0
    0.3573   -2.4751    0.0000 N   0  0  0  0  0  0  0  0  0  0  0
    1.0718   -2.0626    0.0000 C   0  0  0  0  0  0  0  0  0  0  0
    1.7863   -2.4751    0.0000 C   0  0  0  0  0  0  0  0  0  0  0
    2.5007   -2.0626    0.0000 C   0  0  0  0  0  0  0  0  0  0  0
    2.5007   -1.2376    0.0000 C   0  0  0  0  0  0  0  0  0  0  0
    1.7863   -0.8250    0.0000 C   0  0  0  0  0  0  0  0  0  0  0
    1.0718   -1.2376    0.0000 C   0  0  0  0  0  0  0  0  0  0  0
    1.7863   -3.3002    0.0000 O   0  0  0  0  0  0  0  0  0  0  0
    2.5007   -3.7127    0.0000 C   0  0  0  0  0  0  0  0  0  0  0
    3.2153   -0.8250    0.0000 N   0  0  0  0  0  0  0  0  0  0  0
    3.9298   -1.2376    0.0000 C   0  0  0  0  0  0  0  0  0  0  0
    4.6443   -0.8250    0.0000 C   0  0  0  0  0  0  0  0  0  0  0
    4.6443    0.0000    0.0000 N   0  0  0  0  0  0  0  0  0  0  0
    3.9298    0.4125    0.0000 C   0  0  0  0  0  0  0  0  0  0  0
    3.2153    0.0000    0.0000 C   0  0  0  0  0  0  0  0  0  0  0
    5.3588    0.4125    0.0000 C   0  0  0  0  0  0  0  0  0  0  0
    6.0734    0.0000    0.0000 O   0  0  0  0  0  0  0  0  0  0  0
    5.3588    1.2376    0.0000 O   0  0  0  0  0  0  0  0  0  0  0
    6.7878    0.4125    0.0000 C   0  0  0  0  0  0  0  0  0  0  0
  1  2  2  0  0  0  0
  2  3  1  0  0  0  0
  2  4  1  0  0  0  0
  3  5  1  0  0  0  0
  5  6  1  0  0  0  0
  6  7  1  0  0  0  0
  7  8  1  0  0  0  0
  8  9  1  0  0  0  0
  9  3  1  0  0  0  0
  7 10  1  0  0  0  0
 10 11  4  0  0  0  0
 11 12  4  0  0  0  0
 12 13  4  0  0  0  0
 13 14  4  0  0  0  0
 14 15  4  0  0  0  0
 15 10  4  0  0  0  0
 14 16  1  0  0  0  0
 16 17  1  0  0  0  0
 13 18  1  0  0  0  0
 18 19  1  0  0  0  0
 19 20  4  0  0  0  0
 20 21  4  0  0  0  0
 21 22  4  0  0  0  0
 22 23  4  0  0  0  0
 23 24  4  0  0  0  0
 24 19  4  0  0  0  0
 20 25  1  0  0  0  0
 23 26  1  0  0  0  0
 26 27  1  0  0  0  0
 27 28  4  0  0  0  0
 28 29  4  0  0  0  0
 29 30  4  0  0  0  0
 30 31  4  0  0  0  0
 31 32  4  0  0  0  0
 32 27  4  0  0  0  0
 28 33  1  0  0  0  0
 33 34  1  0  0  0  0
 30 35  1  0  0  0  0
 35 36  1  0  0  0  0
 36 37  1  0  0  0  0
 37 38  1  0  0  0  0
 38 39  1  0  0  0  0
 39 40  1  0  0  0  0
 40 35  1  0  0  0  0
 38 41  1  0  0  0  0
 41 42  1  0  0  0  0
 41 43  2  0  0  0  0
 42 44  1  0  0  0  0
M  END
> <From>
www.bindingDB.org

> <BindingDB Reactant_set_id>
345758

> <Ligand InChI>
InChI=1S/C30H37ClN8O5/c1-20(40)36-9-11-37(12-10-36)21-5-7-24(26(17-21)42-2)33-28-23(31)19-32-29(35-28)34-25-8-6-22(18-27(25)43-3)38-13-15-39(16-14-38)30(41)44-4/h5-8,17-19H,9-16H2,1-4H3,(H2,32,33,34,35)

> <Ligand InChI Key>
RJXCNRGHQNDKBN-UHFFFAOYSA-N

> <BindingDB MonomerID>
193502

> <BindingDB Ligand Name>
US9199944, 84

> <Target Name Assigned by Curator or DataSource>
ALK tyrosine kinase receptor

> <Target Source Organism According to Curator or DataSource>
Homo sapiens

> <Ki (nM)>


> <IC50 (nM)>
 10

> <Kd (nM)>


> <EC50 (nM)>


> <kon (M-1-s-1)>


> <koff (s-1)>


> <pH>


> <Temp C>
25.00

> <Curation/DataSource>
US Patent

> <Article DOI>


> <PMID>


> <PubChem AID>


> <Patent Number>
US9199944

> <Authors>
Lee, K; Kim, HR; Park, CH; Lee, CO; Lee, JK; Jung, HJ; Cho, SY; Chae, CH; Choi, SU; Ha, JD

> <Institution>
KOREA RESEARCH INSTITUTE OF CHEMICAL TECHNOLOGY

> <Link to Ligand in BindingDB>
http://www.bindingdb.org/bind/chemsearch/marvin/MolStructure.jsp?monomerid=193502

> <Link to Ligand-Target Pair in BindingDB>
http://www.bindingdb.org/jsp/dbsearch/PrimarySearch_ki.jsp?energyterm=kJ/mole&tag=pol&polymerid=5809&target=ALK+tyrosine+kinase+receptor&column=ki&startPg=0&Increment=50&submit=Search

> <Link to Ligand-Target Pair in BindingDB>
http://www.bindingdb.org/jsp/dbsearch/PrimarySearch_ki.jsp?energyterm=kJ/mole&tag=r21&monomerid=193502&enzyme=ALK+tyrosine+kinase+receptor&column=ki&startPg=0&Increment=50&submit=Search

> <Ligand HET ID in PDB>


> <PDB ID(s) for Ligand-Target Complex>


> <PubChem CID>
118105665

> <PubChem SID>
317230822

> <ChEBI ID of Ligand>


> <ChEMBL ID of Ligand>


> <DrugBank ID of Ligand>


> <IUPHAR_GRAC ID of Ligand>


> <KEGG ID of Ligand>


> <ZINC ID of Ligand>


> <Number of Protein Chains in Target (>1 implies a multichain complex)>
1

> <BindingDB Target Chain Sequence>
MGAIGLLWLLPLLLSTAAVGSGMGTGQRAGSPAAGPPLQPREPLSYSRLQRKSLAVDFVVPSLFRVYARDLLLPPSSSELKAGRPEARGSLALDCAPLLRLLGPAPGVSWTAGSPAPAEARTLSRVLKGGSVRKLRRAKQLVLELGEEAILEGCVGPPGEAAVGLLQFNLSELFSWWIRQGEGRLRIRLMPEKKASEVGREGRLSAAIRASQPRLLFQIFGTGHSSLESPTNMPSPSPDYFTWNLTWIMKDSFPFLSHRSRYGLECSFDFPCELEYSPPLHDLRNQSWSWRRIPSEEASQMDLLDGPGAERSKEMPRGSFLLLNTSADSKHTILSPWMRSSSEHCTLAVSVHRHLQPSGRYIAQLLPHNEAAREILLMPTPGKHGWTVLQGRIGRPDNPFRVALEYISSGNRSLSAVDFFALKNCSEGTSPGSKMALQSSFTCWNGTVLQLGQACDFHQDCAQGEDESQMCRKLPVGFYCNFEDGFCGWTQGTLSPHTPQWQVRTLKDARFQDHQDHALLLSTTDVPASESATVTSATFPAPIKSSPCELRMSWLIRGVLRGNVSLVLVENKTGKEQGRMVWHVAAYEGLSLWQWMVLPLLDVSDRFWLQMVAWWGQGSRAIVAFDNISISLDCYLTISGEDKILQNTAPKSRNLFERNPNKELKPGENSPRQTPIFDPTVHWLFTTCGASGPHGPTQAQCNNAYQNSNLSVEVGSEGPLKGIQIWKVPATDTYSISGYGAAGGKGGKNTMMRSHGVSVLGIFNLEKDDMLYILVGQQGEDACPSTNQLIQKVCIGENNVIEEEIRVNRSVHEWAGGGGGGGGATYVFKMKDGVPVPLIIAAGGGGRAYGAKTDTFHPERLENNSSVLGLNGNSGAAGGGGGWNDNTSLLWAGKSLQEGATGGHSCPQAMKKWGWETRGGFGGGGGGCSSGGGGGGYIGGNAASNNDPEMDGEDGVSFISPLGILYTPALKVMEGHGEVNIKHYLNCSHCEVDECHMDPESHKVICFCDHGTVLAEDGVSCIVSPTPEPHLPLSLILSVVTSALVAALVLAFSGIMIVYRRKHQELQAMQMELQSPEYKLSKLRTSTIMTDYNPNYCFAGKTSSISDLKEVPRKNITLIRGLGHGAFGEVYEGQVSGMPNDPSPLQVAVKTLPEVCSEQDELDFLMEALIISKFNHQNIVRCIGVSLQSLPRFILLELMAGGDLKSFLRETRPRPSQPSSLAMLDLLHVARDIACGCQYLEENHFIHRDIAARNCLLTCPGPGRVAKIGDFGMARDIYRASYYRKGGCAMLPVKWMPPEAFMEGIFTSKTDTWSFGVLLWEIFSLGYMPYPSKSNQEVLEFVTSGGRMDPPKNCPGPVYRIMTQCWQHQPEDRPNFAIILERIEYCTQDPDVINTALPIEYGPLVEEEEKVPVRPKDPEGVPPLLVSQQAKREEERSPAAPPPLPTTSSGKAAKKPTAAEISVRVPRGPAVEGGHVNMAFSQSNPPSELHKVHGSRNKPTSLWNPTYGSWFTEKPTKKNNPIAKKEPHDRGNLGLEGSCTVPPNVATGRLPGASLLLEPSSLTANMKEVPLFRLRHFPCGNVNYGYQQQGLPLEAATAPGAGHYEDTILKSKNSMNQPGP

> <PDB ID(s) of Target Chain>
2XB7,2XBA,3AOX,5FTO,5FTQ,6E0R,6EBW,6EDL,6MX8

> <UniProt (SwissProt) Recommended Name of Target Chain>
ALK tyrosine kinase receptor

> <UniProt (SwissProt) Entry Name of Target Chain>
ALK_HUMAN

> <UniProt (SwissProt) Primary ID of Target Chain>
Q9UM73

> <UniProt (SwissProt) Secondary ID(s) of Target Chain>
Q4ZFX9,Q53QQ6,Q53RZ4,Q59FI3,Q9Y4K6

> <UniProt (SwissProt) Alternative ID(s) of Target Chain>


> <UniProt (TrEMBL) Submitted Name of Target Chain>


> <UniProt (TrEMBL) Entry Name of Target Chain>


> <UniProt (TrEMBL) Primary ID of Target Chain>


> <UniProt (TrEMBL) Secondary ID(s) of Target Chain>


> <UniProt (TrEMBL) Alternative ID(s) of Target Chain>


$$$$
00149001.cdx

Vconf v2.0 Academic SN VC001-00000579
 43 47  0  0  0  0  0  0  0  0999 V2000
   -6.0732    3.7126    0.0000 O   0  0  0  0  0  0  0  0  0  0  0
   -6.0732    2.8876    0.0000 C   0  0  0  0  0  0  0  0  0  0  0
   -5.3587    2.4750    0.0000 N   0  0  0  0  0  0  0  0  0  0  0
   -6.7876    2.4750    0.0000 C   0  0  0  0  0  0  0  0  0  0  0
   -5.3587    1.6500    0.0000 C   0  0  0  0  0  0  0  0  0  0  0
   -4.6441    1.2375    0.0000 C   0  0  0  0  0  0  0  0  0  0  0
   -3.9296    1.6500    0.0000 N   0  0  0  0  0  0  0  0  0  0  0
   -3.9296    2.4750    0.0000 C   0  0  0  0  0  0  0  0  0  0  0
   -4.6441    2.8876    0.0000 C   0  0  0  0  0  0  0  0  0  0  0
   -3.2152    1.2375    0.0000 C   0  0  0  0  0  0  0  0  0  0  0
   -3.2152    0.4125    0.0000 C   0  0  0  0  0  0  0  0  0  0  0
   -2.5007    0.0000    0.0000 C   0  0  0  0  0  0  0  0  0  0  0
   -1.7862    0.4125    0.0000 C   0  0  0  0  0  0  0  0  0  0  0
   -1.7862    1.2375    0.0000 C   0  0  0  0  0  0  0  0  0  0  0
   -2.5007    1.6500    0.0000 C   0  0  0  0  0  0  0  0  0  0  0
   -1.0718    1.6500    0.0000 O   0  0  0  0  0  0  0  0  0  0  0
   -0.3573    1.2375    0.0000 C   0  0  0  0  0  0  0  0  0  0  0
   -1.0718    0.0000    0.0000 N   0  0  0  0  0  0  0  0  0  0  0
   -1.0718   -0.8250    0.0000 C   0  0  0  0  0  0  0  0  0  0  0
   -1.7862   -1.2375    0.0000 C   0  0  0  0  0  0  0  0  0  0  0
   -1.7862   -2.0625    0.0000 C   0  0  0  0  0  0  0  0  0  0  0
   -1.0718   -2.4750    0.0000 N   0  0  0  0  0  0  0  0  0  0  0
   -0.3573   -2.0625    0.0000 C   0  0  0  0  0  0  0  0  0  0  0
   -0.3573   -1.2375    0.0000 N   0  0  0  0  0  0  0  0  0  0  0
   -2.5007   -0.8250    0.0000 Cl  0  0  0  0  0  0  0  0  0  0  0
    0.3573   -2.4750    0.0000 N   0  0  0  0  0  0  0  0  0  0  0
    1.0718   -2.0625    0.0000 C   0  0  0  0  0  0  0  0  0  0  0
    1.7862   -2.4750    0.0000 C   0  0  0  0  0  0  0  0  0  0  0
    2.5007   -2.0625    0.0000 C   0  0  0  0  0  0  0  0  0  0  0
    2.5007   -1.2375    0.0000 C   0  0  0  0  0  0  0  0  0  0  0
    1.7862   -0.8250    0.0000 C   0  0  0  0  0  0  0  0  0  0  0
    1.0718   -1.2375    0.0000 C   0  0  0  0  0  0  0  0  0  0  0
    1.7862   -3.3001    0.0000 O   0  0  0  0  0  0  0  0  0  0  0
    2.5007   -3.7126    0.0000 C   0  0  0  0  0  0  0  0  0  0  0
    3.2152   -0.8250    0.0000 N   0  0  0  0  0  0  0  0  0  0  0
    3.9296   -1.2375    0.0000 C   0  0  0  0  0  0  0  0  0  0  0
    4.6441   -0.8250    0.0000 C   0  0  0  0  0  0  0  0  0  0  0
    4.6441    0.0000    0.0000 N   0  0  0  0  0  0  0  0  0  0  0
    3.9296    0.4125    0.0000 C   0  0  0  0  0  0  0  0  0  0  0
    3.2152    0.0000    0.0000 C   0  0  0  0  0  0  0  0  0  0  0
    5.3587    0.4125    0.0000 C   0  0  0  0  0  0  0  0  0  0  0
    6.0732    0.0000    0.0000 C   0  0  0  0  0  0  0  0  0  0  0
    6.7876    0.4125    0.0000 O   0  0  0  0  0  0  0  0  0  0  0
  1  2  2  0  0  0  0
  2  3  1  0  0  0  0
  2  4  1  0  0  0  0
  3  5  1  0  0  0  0
  5  6  1  0  0  0  0
  6  7  1  0  0  0  0
  7  8  1  0  0  0  0
  8  9  1  0  0  0  0
  9  3  1  0  0  0  0
  7 10  1  0  0  0  0
 10 11  4  0  0  0  0
 11 12  4  0  0  0  0
 12 13  4  0  0  0  0
 13 14  4  0  0  0  0
 14 15  4  0  0  0  0
 15 10  4  0  0  0  0
 14 16  1  0  0  0  0
 16 17  1  0  0  0  0
 13 18  1  0  0  0  0
 18 19  1  0  0  0  0
 19 20  4  0  0  0  0
 20 21  4  0  0  0  0
 21 22  4  0  0  0  0
 22 23  4  0  0  0  0
 23 24  4  0  0  0  0
 24 19  4  0  0  0  0
 20 25  1  0  0  0  0
 23 26  1  0  0  0  0
 26 27  1  0  0  0  0
 27 28  4  0  0  0  0
 28 29  4  0  0  0  0
 29 30  4  0  0  0  0
 30 31  4  0  0  0  0
 31 32  4  0  0  0  0
 32 27  4  0  0  0  0
 28 33  1  0  0  0  0
 33 34  1  0  0  0  0
 30 35  1  0  0  0  0
 35 36  1  0  0  0  0
 36 37  1  0  0  0  0
 37 38  1  0  0  0  0
 38 39  1  0  0  0  0
 39 40  1  0  0  0  0
 40 35  1  0  0  0  0
 38 41  1  0  0  0  0
 41 42  1  0  0  0  0
 42 43  1  0  0  0  0
M  END
> <From>
www.bindingDB.org

> <BindingDB Reactant_set_id>
345759

> <Ligand InChI>
InChI=1S/C30H39ClN8O4/c1-21(41)37-12-14-39(15-13-37)23-4-6-25(27(18-23)42-2)33-29-24(31)20-32-30(35-29)34-26-7-5-22(19-28(26)43-3)38-10-8-36(9-11-38)16-17-40/h4-7,18-20,40H,8-17H2,1-3H3,(H2,32,33,34,35)

> <Ligand InChI Key>
WETIPPHXDHMKKQ-UHFFFAOYSA-N

> <BindingDB MonomerID>
193503

> <BindingDB Ligand Name>
US9199944, 85

> <Target Name Assigned by Curator or DataSource>
ALK tyrosine kinase receptor

> <Target Source Organism According to Curator or DataSource>
Homo sapiens

> <Ki (nM)>


> <IC50 (nM)>
 2

> <Kd (nM)>


> <EC50 (nM)>


> <kon (M-1-s-1)>


> <koff (s-1)>


> <pH>


> <Temp C>
25.00

> <Curation/DataSource>
US Patent

> <Article DOI>


> <PMID>


> <PubChem AID>


> <Patent Number>
US9199944

> <Authors>
Lee, K; Kim, HR; Park, CH; Lee, CO; Lee, JK; Jung, HJ; Cho, SY; Chae, CH; Choi, SU; Ha, JD

> <Institution>
KOREA RESEARCH INSTITUTE OF CHEMICAL TECHNOLOGY

> <Link to Ligand in BindingDB>
http://www.bindingdb.org/bind/chemsearch/marvin/MolStructure.jsp?monomerid=193503

> <Link to Ligand-Target Pair in BindingDB>
http://www.bindingdb.org/jsp/dbsearch/PrimarySearch_ki.jsp?energyterm=kJ/mole&tag=pol&polymerid=5809&target=ALK+tyrosine+kinase+receptor&column=ki&startPg=0&Increment=50&submit=Search

> <Link to Ligand-Target Pair in BindingDB>
http://www.bindingdb.org/jsp/dbsearch/PrimarySearch_ki.jsp?energyterm=kJ/mole&tag=r21&monomerid=193503&enzyme=ALK+tyrosine+kinase+receptor&column=ki&startPg=0&Increment=50&submit=Search

> <Ligand HET ID in PDB>


> <PDB ID(s) for Ligand-Target Complex>


> <PubChem CID>
72792445

> <PubChem SID>
317230823

> <ChEBI ID of Ligand>


> <ChEMBL ID of Ligand>


> <DrugBank ID of Ligand>


> <IUPHAR_GRAC ID of Ligand>


> <KEGG ID of Ligand>


> <ZINC ID of Ligand>


> <Number of Protein Chains in Target (>1 implies a multichain complex)>
1

> <BindingDB Target Chain Sequence>
MGAIGLLWLLPLLLSTAAVGSGMGTGQRAGSPAAGPPLQPREPLSYSRLQRKSLAVDFVVPSLFRVYARDLLLPPSSSELKAGRPEARGSLALDCAPLLRLLGPAPGVSWTAGSPAPAEARTLSRVLKGGSVRKLRRAKQLVLELGEEAILEGCVGPPGEAAVGLLQFNLSELFSWWIRQGEGRLRIRLMPEKKASEVGREGRLSAAIRASQPRLLFQIFGTGHSSLESPTNMPSPSPDYFTWNLTWIMKDSFPFLSHRSRYGLECSFDFPCELEYSPPLHDLRNQSWSWRRIPSEEASQMDLLDGPGAERSKEMPRGSFLLLNTSADSKHTILSPWMRSSSEHCTLAVSVHRHLQPSGRYIAQLLPHNEAAREILLMPTPGKHGWTVLQGRIGRPDNPFRVALEYISSGNRSLSAVDFFALKNCSEGTSPGSKMALQSSFTCWNGTVLQLGQACDFHQDCAQGEDESQMCRKLPVGFYCNFEDGFCGWTQGTLSPHTPQWQVRTLKDARFQDHQDHALLLSTTDVPASESATVTSATFPAPIKSSPCELRMSWLIRGVLRGNVSLVLVENKTGKEQGRMVWHVAAYEGLSLWQWMVLPLLDVSDRFWLQMVAWWGQGSRAIVAFDNISISLDCYLTISGEDKILQNTAPKSRNLFERNPNKELKPGENSPRQTPIFDPTVHWLFTTCGASGPHGPTQAQCNNAYQNSNLSVEVGSEGPLKGIQIWKVPATDTYSISGYGAAGGKGGKNTMMRSHGVSVLGIFNLEKDDMLYILVGQQGEDACPSTNQLIQKVCIGENNVIEEEIRVNRSVHEWAGGGGGGGGATYVFKMKDGVPVPLIIAAGGGGRAYGAKTDTFHPERLENNSSVLGLNGNSGAAGGGGGWNDNTSLLWAGKSLQEGATGGHSCPQAMKKWGWETRGGFGGGGGGCSSGGGGGGYIGGNAASNNDPEMDGEDGVSFISPLGILYTPALKVMEGHGEVNIKHYLNCSHCEVDECHMDPESHKVICFCDHGTVLAEDGVSCIVSPTPEPHLPLSLILSVVTSALVAALVLAFSGIMIVYRRKHQELQAMQMELQSPEYKLSKLRTSTIMTDYNPNYCFAGKTSSISDLKEVPRKNITLIRGLGHGAFGEVYEGQVSGMPNDPSPLQVAVKTLPEVCSEQDELDFLMEALIISKFNHQNIVRCIGVSLQSLPRFILLELMAGGDLKSFLRETRPRPSQPSSLAMLDLLHVARDIACGCQYLEENHFIHRDIAARNCLLTCPGPGRVAKIGDFGMARDIYRASYYRKGGCAMLPVKWMPPEAFMEGIFTSKTDTWSFGVLLWEIFSLGYMPYPSKSNQEVLEFVTSGGRMDPPKNCPGPVYRIMTQCWQHQPEDRPNFAIILERIEYCTQDPDVINTALPIEYGPLVEEEEKVPVRPKDPEGVPPLLVSQQAKREEERSPAAPPPLPTTSSGKAAKKPTAAEISVRVPRGPAVEGGHVNMAFSQSNPPSELHKVHGSRNKPTSLWNPTYGSWFTEKPTKKNNPIAKKEPHDRGNLGLEGSCTVPPNVATGRLPGASLLLEPSSLTANMKEVPLFRLRHFPCGNVNYGYQQQGLPLEAATAPGAGHYEDTILKSKNSMNQPGP

> <PDB ID(s) of Target Chain>
2XB7,2XBA,3AOX,5FTO,5FTQ,6E0R,6EBW,6EDL,6MX8

> <UniProt (SwissProt) Recommended Name of Target Chain>
ALK tyrosine kinase receptor

> <UniProt (SwissProt) Entry Name of Target Chain>
ALK_HUMAN

> <UniProt (SwissProt) Primary ID of Target Chain>
Q9UM73

> <UniProt (SwissProt) Secondary ID(s) of Target Chain>
Q4ZFX9,Q53QQ6,Q53RZ4,Q59FI3,Q9Y4K6

> <UniProt (SwissProt) Alternative ID(s) of Target Chain>


> <UniProt (TrEMBL) Submitted Name of Target Chain>


> <UniProt (TrEMBL) Entry Name of Target Chain>


> <UniProt (TrEMBL) Primary ID of Target Chain>


> <UniProt (TrEMBL) Secondary ID(s) of Target Chain>


> <UniProt (TrEMBL) Alternative ID(s) of Target Chain>


$$$$
00150001.cdx

Vconf v2.0 Academic SN VC001-00000579
 44 48  0  0  0  0  0  0  0  0999 V2000
   -6.4305    2.4751    0.0000 C   0  0  0  0  0  0  0  0  0  0  0
   -5.7159    2.8876    0.0000 C   0  0  0  0  0  0  0  0  0  0  0
   -5.0014    2.4751    0.0000 N   0  0  0  0  0  0  0  0  0  0  0
   -5.7159    3.7126    0.0000 O   0  0  0  0  0  0  0  0  0  0  0
   -5.0014    1.6500    0.0000 C   0  0  0  0  0  0  0  0  0  0  0
   -4.2869    1.2376    0.0000 C   0  0  0  0  0  0  0  0  0  0  0
   -3.5724    1.6500    0.0000 N   0  0  0  0  0  0  0  0  0  0  0
   -3.5724    2.4751    0.0000 C   0  0  0  0  0  0  0  0  0  0  0
   -4.2869    2.8876    0.0000 C   0  0  0  0  0  0  0  0  0  0  0
   -2.8579    1.2376    0.0000 C   0  0  0  0  0  0  0  0  0  0  0
   -2.8579    0.4125    0.0000 C   0  0  0  0  0  0  0  0  0  0  0
   -2.1434    0.0000    0.0000 C   0  0  0  0  0  0  0  0  0  0  0
   -1.4290    0.4125    0.0000 C   0  0  0  0  0  0  0  0  0  0  0
   -1.4290    1.2376    0.0000 C   0  0  0  0  0  0  0  0  0  0  0
   -2.1434    1.6500    0.0000 C   0  0  0  0  0  0  0  0  0  0  0
   -0.7145    1.6500    0.0000 O   0  0  0  0  0  0  0  0  0  0  0
    0.0000    1.2376    0.0000 C   0  0  0  0  0  0  0  0  0  0  0
   -0.7145    0.0000    0.0000 N   0  0  0  0  0  0  0  0  0  0  0
   -0.7145   -0.8251    0.0000 C   0  0  0  0  0  0  0  0  0  0  0
   -1.4290   -1.2376    0.0000 C   0  0  0  0  0  0  0  0  0  0  0
   -1.4290   -2.0625    0.0000 C   0  0  0  0  0  0  0  0  0  0  0
   -0.7145   -2.4751    0.0000 N   0  0  0  0  0  0  0  0  0  0  0
    0.0000   -2.0625    0.0000 C   0  0  0  0  0  0  0  0  0  0  0
    0.0000   -1.2376    0.0000 N   0  0  0  0  0  0  0  0  0  0  0
   -2.1434   -0.8251    0.0000 Cl  0  0  0  0  0  0  0  0  0  0  0
    0.7145   -2.4751    0.0000 N   0  0  0  0  0  0  0  0  0  0  0
    1.4290   -2.0625    0.0000 C   0  0  0  0  0  0  0  0  0  0  0
    2.1434   -2.4751    0.0000 C   0  0  0  0  0  0  0  0  0  0  0
    2.8579   -2.0625    0.0000 C   0  0  0  0  0  0  0  0  0  0  0
    2.8579   -1.2376    0.0000 C   0  0  0  0  0  0  0  0  0  0  0
    2.1434   -0.8251    0.0000 C   0  0  0  0  0  0  0  0  0  0  0
    1.4290   -1.2376    0.0000 C   0  0  0  0  0  0  0  0  0  0  0
    2.1434   -3.3001    0.0000 O   0  0  0  0  0  0  0  0  0  0  0
    2.8579   -3.7126    0.0000 C   0  0  0  0  0  0  0  0  0  0  0
    3.5724   -0.8251    0.0000 N   0  0  0  0  0  0  0  0  0  0  0
    4.2869   -1.2376    0.0000 C   0  0  0  0  0  0  0  0  0  0  0
    5.0014   -0.8251    0.0000 C   0  0  0  0  0  0  0  0  0  0  0
    5.0014    0.0000    0.0000 N   0  0  0  0  0  0  0  0  0  0  0
    4.2869    0.4125    0.0000 C   0  0  0  0  0  0  0  0  0  0  0
    3.5724    0.0000    0.0000 C   0  0  0  0  0  0  0  0  0  0  0
    5.7159    0.4125    0.0000 S   0  0  0  0  0  0  0  0  0  0  0
    6.4305    0.0000    0.0000 N   0  0  0  0  0  0  0  0  0  0  0
    5.3034    1.1270    0.0000 O   0  0  0  0  0  0  0  0  0  0  0
    6.1285    1.1270    0.0000 O   0  0  0  0  0  0  0  0  0  0  0
  1  2  1  0  0  0  0
  2  3  1  0  0  0  0
  2  4  2  0  0  0  0
  3  5  1  0  0  0  0
  5  6  1  0  0  0  0
  6  7  1  0  0  0  0
  7  8  1  0  0  0  0
  8  9  1  0  0  0  0
  9  3  1  0  0  0  0
  7 10  1  0  0  0  0
 10 11  4  0  0  0  0
 11 12  4  0  0  0  0
 12 13  4  0  0  0  0
 13 14  4  0  0  0  0
 14 15  4  0  0  0  0
 15 10  4  0  0  0  0
 14 16  1  0  0  0  0
 16 17  1  0  0  0  0
 13 18  1  0  0  0  0
 18 19  1  0  0  0  0
 19 20  4  0  0  0  0
 20 21  4  0  0  0  0
 21 22  4  0  0  0  0
 22 23  4  0  0  0  0
 23 24  4  0  0  0  0
 24 19  4  0  0  0  0
 20 25  1  0  0  0  0
 23 26  1  0  0  0  0
 26 27  1  0  0  0  0
 27 28  4  0  0  0  0
 28 29  4  0  0  0  0
 29 30  4  0  0  0  0
 30 31  4  0  0  0  0
 31 32  4  0  0  0  0
 32 27  4  0  0  0  0
 28 33  1  0  0  0  0
 33 34  1  0  0  0  0
 30 35  1  0  0  0  0
 35 36  1  0  0  0  0
 36 37  1  0  0  0  0
 37 38  1  0  0  0  0
 38 39  1  0  0  0  0
 39 40  1  0  0  0  0
 40 35  1  0  0  0  0
 38 41  1  0  0  0  0
 41 42  1  0  0  0  0
 41 43  2  0  0  0  0
 41 44  2  0  0  0  0
M  END
> <From>
www.bindingDB.org

> <BindingDB Reactant_set_id>
345760

> <Ligand InChI>
InChI=1S/C28H36ClN9O5S/c1-19(39)35-8-10-36(11-9-35)20-4-6-23(25(16-20)42-2)32-27-22(29)18-31-28(34-27)33-24-7-5-21(17-26(24)43-3)37-12-14-38(15-13-37)44(30,40)41/h4-7,16-18H,8-15H2,1-3H3,(H2,30,40,41)(H2,31,32,33,34)

> <Ligand InChI Key>
WNIFTUJCZXSVMF-UHFFFAOYSA-N

> <BindingDB MonomerID>
193504

> <BindingDB Ligand Name>
US9199944, 86

> <Target Name Assigned by Curator or DataSource>
ALK tyrosine kinase receptor

> <Target Source Organism According to Curator or DataSource>
Homo sapiens

> <Ki (nM)>


> <IC50 (nM)>
 9

> <Kd (nM)>


> <EC50 (nM)>


> <kon (M-1-s-1)>


> <koff (s-1)>


> <pH>


> <Temp C>
25.00

> <Curation/DataSource>
US Patent

> <Article DOI>


> <PMID>


> <PubChem AID>


> <Patent Number>
US9199944

> <Authors>
Lee, K; Kim, HR; Park, CH; Lee, CO; Lee, JK; Jung, HJ; Cho, SY; Chae, CH; Choi, SU; Ha, JD

> <Institution>
KOREA RESEARCH INSTITUTE OF CHEMICAL TECHNOLOGY

> <Link to Ligand in BindingDB>
http://www.bindingdb.org/bind/chemsearch/marvin/MolStructure.jsp?monomerid=193504

> <Link to Ligand-Target Pair in BindingDB>
http://www.bindingdb.org/jsp/dbsearch/PrimarySearch_ki.jsp?energyterm=kJ/mole&tag=pol&polymerid=5809&target=ALK+tyrosine+kinase+receptor&column=ki&startPg=0&Increment=50&submit=Search

> <Link to Ligand-Target Pair in BindingDB>
http://www.bindingdb.org/jsp/dbsearch/PrimarySearch_ki.jsp?energyterm=kJ/mole&tag=r21&monomerid=193504&enzyme=ALK+tyrosine+kinase+receptor&column=ki&startPg=0&Increment=50&submit=Search

> <Ligand HET ID in PDB>


> <PDB ID(s) for Ligand-Target Complex>


> <PubChem CID>
118105679

> <PubChem SID>
317230824

> <ChEBI ID of Ligand>


> <ChEMBL ID of Ligand>


> <DrugBank ID of Ligand>


> <IUPHAR_GRAC ID of Ligand>


> <KEGG ID of Ligand>


> <ZINC ID of Ligand>


> <Number of Protein Chains in Target (>1 implies a multichain complex)>
1

> <BindingDB Target Chain Sequence>
MGAIGLLWLLPLLLSTAAVGSGMGTGQRAGSPAAGPPLQPREPLSYSRLQRKSLAVDFVVPSLFRVYARDLLLPPSSSELKAGRPEARGSLALDCAPLLRLLGPAPGVSWTAGSPAPAEARTLSRVLKGGSVRKLRRAKQLVLELGEEAILEGCVGPPGEAAVGLLQFNLSELFSWWIRQGEGRLRIRLMPEKKASEVGREGRLSAAIRASQPRLLFQIFGTGHSSLESPTNMPSPSPDYFTWNLTWIMKDSFPFLSHRSRYGLECSFDFPCELEYSPPLHDLRNQSWSWRRIPSEEASQMDLLDGPGAERSKEMPRGSFLLLNTSADSKHTILSPWMRSSSEHCTLAVSVHRHLQPSGRYIAQLLPHNEAAREILLMPTPGKHGWTVLQGRIGRPDNPFRVALEYISSGNRSLSAVDFFALKNCSEGTSPGSKMALQSSFTCWNGTVLQLGQACDFHQDCAQGEDESQMCRKLPVGFYCNFEDGFCGWTQGTLSPHTPQWQVRTLKDARFQDHQDHALLLSTTDVPASESATVTSATFPAPIKSSPCELRMSWLIRGVLRGNVSLVLVENKTGKEQGRMVWHVAAYEGLSLWQWMVLPLLDVSDRFWLQMVAWWGQGSRAIVAFDNISISLDCYLTISGEDKILQNTAPKSRNLFERNPNKELKPGENSPRQTPIFDPTVHWLFTTCGASGPHGPTQAQCNNAYQNSNLSVEVGSEGPLKGIQIWKVPATDTYSISGYGAAGGKGGKNTMMRSHGVSVLGIFNLEKDDMLYILVGQQGEDACPSTNQLIQKVCIGENNVIEEEIRVNRSVHEWAGGGGGGGGATYVFKMKDGVPVPLIIAAGGGGRAYGAKTDTFHPERLENNSSVLGLNGNSGAAGGGGGWNDNTSLLWAGKSLQEGATGGHSCPQAMKKWGWETRGGFGGGGGGCSSGGGGGGYIGGNAASNNDPEMDGEDGVSFISPLGILYTPALKVMEGHGEVNIKHYLNCSHCEVDECHMDPESHKVICFCDHGTVLAEDGVSCIVSPTPEPHLPLSLILSVVTSALVAALVLAFSGIMIVYRRKHQELQAMQMELQSPEYKLSKLRTSTIMTDYNPNYCFAGKTSSISDLKEVPRKNITLIRGLGHGAFGEVYEGQVSGMPNDPSPLQVAVKTLPEVCSEQDELDFLMEALIISKFNHQNIVRCIGVSLQSLPRFILLELMAGGDLKSFLRETRPRPSQPSSLAMLDLLHVARDIACGCQYLEENHFIHRDIAARNCLLTCPGPGRVAKIGDFGMARDIYRASYYRKGGCAMLPVKWMPPEAFMEGIFTSKTDTWSFGVLLWEIFSLGYMPYPSKSNQEVLEFVTSGGRMDPPKNCPGPVYRIMTQCWQHQPEDRPNFAIILERIEYCTQDPDVINTALPIEYGPLVEEEEKVPVRPKDPEGVPPLLVSQQAKREEERSPAAPPPLPTTSSGKAAKKPTAAEISVRVPRGPAVEGGHVNMAFSQSNPPSELHKVHGSRNKPTSLWNPTYGSWFTEKPTKKNNPIAKKEPHDRGNLGLEGSCTVPPNVATGRLPGASLLLEPSSLTANMKEVPLFRLRHFPCGNVNYGYQQQGLPLEAATAPGAGHYEDTILKSKNSMNQPGP

> <PDB ID(s) of Target Chain>
2XB7,2XBA,3AOX,5FTO,5FTQ,6E0R,6EBW,6EDL,6MX8

> <UniProt (SwissProt) Recommended Name of Target Chain>
ALK tyrosine kinase receptor

> <UniProt (SwissProt) Entry Name of Target Chain>
ALK_HUMAN

> <UniProt (SwissProt) Primary ID of Target Chain>
Q9UM73

> <UniProt (SwissProt) Secondary ID(s) of Target Chain>
Q4ZFX9,Q53QQ6,Q53RZ4,Q59FI3,Q9Y4K6

> <UniProt (SwissProt) Alternative ID(s) of Target Chain>


> <UniProt (TrEMBL) Submitted Name of Target Chain>


> <UniProt (TrEMBL) Entry Name of Target Chain>


> <UniProt (TrEMBL) Primary ID of Target Chain>


> <UniProt (TrEMBL) Secondary ID(s) of Target Chain>


> <UniProt (TrEMBL) Alternative ID(s) of Target Chain>


$$$$
00151001.cdx

Vconf v2.0 Academic SN VC001-00000579
 44 48  0  0  0  0  0  0  0  0999 V2000
   -6.4302    2.4750    0.0000 C   0  0  0  0  0  0  0  0  0  0  0
   -5.7157    2.8875    0.0000 C   0  0  0  0  0  0  0  0  0  0  0
   -5.0012    2.4750    0.0000 N   0  0  0  0  0  0  0  0  0  0  0
   -5.7157    3.7125    0.0000 O   0  0  0  0  0  0  0  0  0  0  0
   -5.0012    1.6499    0.0000 C   0  0  0  0  0  0  0  0  0  0  0
   -4.2868    1.2375    0.0000 C   0  0  0  0  0  0  0  0  0  0  0
   -3.5724    1.6499    0.0000 N   0  0  0  0  0  0  0  0  0  0  0
   -3.5724    2.4750    0.0000 C   0  0  0  0  0  0  0  0  0  0  0
   -4.2868    2.8875    0.0000 C   0  0  0  0  0  0  0  0  0  0  0
   -2.8579    1.2375    0.0000 C   0  0  0  0  0  0  0  0  0  0  0
   -2.8579    0.4125    0.0000 C   0  0  0  0  0  0  0  0  0  0  0
   -2.1434    0.0000    0.0000 C   0  0  0  0  0  0  0  0  0  0  0
   -1.4290    0.4125    0.0000 C   0  0  0  0  0  0  0  0  0  0  0
   -1.4290    1.2375    0.0000 C   0  0  0  0  0  0  0  0  0  0  0
   -2.1434    1.6499    0.0000 C   0  0  0  0  0  0  0  0  0  0  0
   -0.7145    1.6499    0.0000 O   0  0  0  0  0  0  0  0  0  0  0
    0.0000    1.2375    0.0000 C   0  0  0  0  0  0  0  0  0  0  0
   -0.7145    0.0000    0.0000 N   0  0  0  0  0  0  0  0  0  0  0
   -0.7145   -0.8250    0.0000 C   0  0  0  0  0  0  0  0  0  0  0
   -1.4290   -1.2375    0.0000 C   0  0  0  0  0  0  0  0  0  0  0
   -1.4290   -2.0625    0.0000 C   0  0  0  0  0  0  0  0  0  0  0
   -0.7145   -2.4750    0.0000 N   0  0  0  0  0  0  0  0  0  0  0
    0.0000   -2.0625    0.0000 C   0  0  0  0  0  0  0  0  0  0  0
    0.0000   -1.2375    0.0000 N   0  0  0  0  0  0  0  0  0  0  0
   -2.1434   -0.8250    0.0000 Cl  0  0  0  0  0  0  0  0  0  0  0
    0.7145   -2.4750    0.0000 N   0  0  0  0  0  0  0  0  0  0  0
    1.4290   -2.0625    0.0000 C   0  0  0  0  0  0  0  0  0  0  0
    2.1434   -2.4750    0.0000 C   0  0  0  0  0  0  0  0  0  0  0
    2.8579   -2.0625    0.0000 C   0  0  0  0  0  0  0  0  0  0  0
    2.8579   -1.2375    0.0000 C   0  0  0  0  0  0  0  0  0  0  0
    2.1434   -0.8250    0.0000 C   0  0  0  0  0  0  0  0  0  0  0
    1.4290   -1.2375    0.0000 C   0  0  0  0  0  0  0  0  0  0  0
    2.1434   -3.3000    0.0000 O   0  0  0  0  0  0  0  0  0  0  0
    2.8579   -3.7125    0.0000 C   0  0  0  0  0  0  0  0  0  0  0
    3.5724   -0.8250    0.0000 N   0  0  0  0  0  0  0  0  0  0  0
    4.2868   -1.2375    0.0000 C   0  0  0  0  0  0  0  0  0  0  0
    5.0012   -0.8250    0.0000 C   0  0  0  0  0  0  0  0  0  0  0
    5.0012    0.0000    0.0000 N   0  0  0  0  0  0  0  0  0  0  0
    4.2868    0.4125    0.0000 C   0  0  0  0  0  0  0  0  0  0  0
    3.5724    0.0000    0.0000 C   0  0  0  0  0  0  0  0  0  0  0
    5.7157    0.4125    0.0000 S   0  0  0  0  0  0  0  0  0  0  0
    6.4302    0.0000    0.0000 C   0  0  0  0  0  0  0  0  0  0  0
    5.3032    1.1270    0.0000 O   0  0  0  0  0  0  0  0  0  0  0
    6.1282    1.1270    0.0000 O   0  0  0  0  0  0  0  0  0  0  0
  1  2  1  0  0  0  0
  2  3  1  0  0  0  0
  2  4  2  0  0  0  0
  3  5  1  0  0  0  0
  5  6  1  0  0  0  0
  6  7  1  0  0  0  0
  7  8  1  0  0  0  0
  8  9  1  0  0  0  0
  9  3  1  0  0  0  0
  7 10  1  0  0  0  0
 10 11  4  0  0  0  0
 11 12  4  0  0  0  0
 12 13  4  0  0  0  0
 13 14  4  0  0  0  0
 14 15  4  0  0  0  0
 15 10  4  0  0  0  0
 14 16  1  0  0  0  0
 16 17  1  0  0  0  0
 13 18  1  0  0  0  0
 18 19  1  0  0  0  0
 19 20  4  0  0  0  0
 20 21  4  0  0  0  0
 21 22  4  0  0  0  0
 22 23  4  0  0  0  0
 23 24  4  0  0  0  0
 24 19  4  0  0  0  0
 20 25  1  0  0  0  0
 23 26  1  0  0  0  0
 26 27  1  0  0  0  0
 27 28  4  0  0  0  0
 28 29  4  0  0  0  0
 29 30  4  0  0  0  0
 30 31  4  0  0  0  0
 31 32  4  0  0  0  0
 32 27  4  0  0  0  0
 28 33  1  0  0  0  0
 33 34  1  0  0  0  0
 30 35  1  0  0  0  0
 35 36  1  0  0  0  0
 36 37  1  0  0  0  0
 37 38  1  0  0  0  0
 38 39  1  0  0  0  0
 39 40  1  0  0  0  0
 40 35  1  0  0  0  0
 38 41  1  0  0  0  0
 41 42  1  0  0  0  0
 41 43  2  0  0  0  0
 41 44  2  0  0  0  0
M  END
> <From>
www.bindingDB.org

> <BindingDB Reactant_set_id>
345761

> <Ligand InChI>
InChI=1S/C29H37ClN8O5S/c1-20(39)35-9-11-36(12-10-35)21-5-7-24(26(17-21)42-2)32-28-23(30)19-31-29(34-28)33-25-8-6-22(18-27(25)43-3)37-13-15-38(16-14-37)44(4,40)41/h5-8,17-19H,9-16H2,1-4H3,(H2,31,32,33,34)

> <Ligand InChI Key>
RMGHGBAKDGPFGP-UHFFFAOYSA-N

> <BindingDB MonomerID>
193505

> <BindingDB Ligand Name>
US9199944, 87

> <Target Name Assigned by Curator or DataSource>
ALK tyrosine kinase receptor

> <Target Source Organism According to Curator or DataSource>
Homo sapiens

> <Ki (nM)>


> <IC50 (nM)>
 10

> <Kd (nM)>


> <EC50 (nM)>


> <kon (M-1-s-1)>


> <koff (s-1)>


> <pH>


> <Temp C>
25.00

> <Curation/DataSource>
US Patent

> <Article DOI>


> <PMID>


> <PubChem AID>


> <Patent Number>
US9199944

> <Authors>
Lee, K; Kim, HR; Park, CH; Lee, CO; Lee, JK; Jung, HJ; Cho, SY; Chae, CH; Choi, SU; Ha, JD

> <Institution>
KOREA RESEARCH INSTITUTE OF CHEMICAL TECHNOLOGY

> <Link to Ligand in BindingDB>
http://www.bindingdb.org/bind/chemsearch/marvin/MolStructure.jsp?monomerid=193505

> <Link to Ligand-Target Pair in BindingDB>
http://www.bindingdb.org/jsp/dbsearch/PrimarySearch_ki.jsp?energyterm=kJ/mole&tag=pol&polymerid=5809&target=ALK+tyrosine+kinase+receptor&column=ki&startPg=0&Increment=50&submit=Search

> <Link to Ligand-Target Pair in BindingDB>
http://www.bindingdb.org/jsp/dbsearch/PrimarySearch_ki.jsp?energyterm=kJ/mole&tag=r21&monomerid=193505&enzyme=ALK+tyrosine+kinase+receptor&column=ki&startPg=0&Increment=50&submit=Search

> <Ligand HET ID in PDB>


> <PDB ID(s) for Ligand-Target Complex>


> <PubChem CID>
118105699

> <PubChem SID>
317230825

> <ChEBI ID of Ligand>


> <ChEMBL ID of Ligand>


> <DrugBank ID of Ligand>


> <IUPHAR_GRAC ID of Ligand>


> <KEGG ID of Ligand>


> <ZINC ID of Ligand>


> <Number of Protein Chains in Target (>1 implies a multichain complex)>
1

> <BindingDB Target Chain Sequence>
MGAIGLLWLLPLLLSTAAVGSGMGTGQRAGSPAAGPPLQPREPLSYSRLQRKSLAVDFVVPSLFRVYARDLLLPPSSSELKAGRPEARGSLALDCAPLLRLLGPAPGVSWTAGSPAPAEARTLSRVLKGGSVRKLRRAKQLVLELGEEAILEGCVGPPGEAAVGLLQFNLSELFSWWIRQGEGRLRIRLMPEKKASEVGREGRLSAAIRASQPRLLFQIFGTGHSSLESPTNMPSPSPDYFTWNLTWIMKDSFPFLSHRSRYGLECSFDFPCELEYSPPLHDLRNQSWSWRRIPSEEASQMDLLDGPGAERSKEMPRGSFLLLNTSADSKHTILSPWMRSSSEHCTLAVSVHRHLQPSGRYIAQLLPHNEAAREILLMPTPGKHGWTVLQGRIGRPDNPFRVALEYISSGNRSLSAVDFFALKNCSEGTSPGSKMALQSSFTCWNGTVLQLGQACDFHQDCAQGEDESQMCRKLPVGFYCNFEDGFCGWTQGTLSPHTPQWQVRTLKDARFQDHQDHALLLSTTDVPASESATVTSATFPAPIKSSPCELRMSWLIRGVLRGNVSLVLVENKTGKEQGRMVWHVAAYEGLSLWQWMVLPLLDVSDRFWLQMVAWWGQGSRAIVAFDNISISLDCYLTISGEDKILQNTAPKSRNLFERNPNKELKPGENSPRQTPIFDPTVHWLFTTCGASGPHGPTQAQCNNAYQNSNLSVEVGSEGPLKGIQIWKVPATDTYSISGYGAAGGKGGKNTMMRSHGVSVLGIFNLEKDDMLYILVGQQGEDACPSTNQLIQKVCIGENNVIEEEIRVNRSVHEWAGGGGGGGGATYVFKMKDGVPVPLIIAAGGGGRAYGAKTDTFHPERLENNSSVLGLNGNSGAAGGGGGWNDNTSLLWAGKSLQEGATGGHSCPQAMKKWGWETRGGFGGGGGGCSSGGGGGGYIGGNAASNNDPEMDGEDGVSFISPLGILYTPALKVMEGHGEVNIKHYLNCSHCEVDECHMDPESHKVICFCDHGTVLAEDGVSCIVSPTPEPHLPLSLILSVVTSALVAALVLAFSGIMIVYRRKHQELQAMQMELQSPEYKLSKLRTSTIMTDYNPNYCFAGKTSSISDLKEVPRKNITLIRGLGHGAFGEVYEGQVSGMPNDPSPLQVAVKTLPEVCSEQDELDFLMEALIISKFNHQNIVRCIGVSLQSLPRFILLELMAGGDLKSFLRETRPRPSQPSSLAMLDLLHVARDIACGCQYLEENHFIHRDIAARNCLLTCPGPGRVAKIGDFGMARDIYRASYYRKGGCAMLPVKWMPPEAFMEGIFTSKTDTWSFGVLLWEIFSLGYMPYPSKSNQEVLEFVTSGGRMDPPKNCPGPVYRIMTQCWQHQPEDRPNFAIILERIEYCTQDPDVINTALPIEYGPLVEEEEKVPVRPKDPEGVPPLLVSQQAKREEERSPAAPPPLPTTSSGKAAKKPTAAEISVRVPRGPAVEGGHVNMAFSQSNPPSELHKVHGSRNKPTSLWNPTYGSWFTEKPTKKNNPIAKKEPHDRGNLGLEGSCTVPPNVATGRLPGASLLLEPSSLTANMKEVPLFRLRHFPCGNVNYGYQQQGLPLEAATAPGAGHYEDTILKSKNSMNQPGP

> <PDB ID(s) of Target Chain>
2XB7,2XBA,3AOX,5FTO,5FTQ,6E0R,6EBW,6EDL,6MX8

> <UniProt (SwissProt) Recommended Name of Target Chain>
ALK tyrosine kinase receptor

> <UniProt (SwissProt) Entry Name of Target Chain>
ALK_HUMAN

> <UniProt (SwissProt) Primary ID of Target Chain>
Q9UM73

> <UniProt (SwissProt) Secondary ID(s) of Target Chain>
Q4ZFX9,Q53QQ6,Q53RZ4,Q59FI3,Q9Y4K6

> <UniProt (SwissProt) Alternative ID(s) of Target Chain>


> <UniProt (TrEMBL) Submitted Name of Target Chain>


> <UniProt (TrEMBL) Entry Name of Target Chain>


> <UniProt (TrEMBL) Primary ID of Target Chain>


> <UniProt (TrEMBL) Secondary ID(s) of Target Chain>


> <UniProt (TrEMBL) Alternative ID(s) of Target Chain>


$$$$
00152001.cdx

Vconf v2.0 Academic SN VC001-00000579
 46 50  0  0  0  0  0  0  0  0999 V2000
   -6.7873    2.8874    0.0000 O   0  0  0  0  0  0  0  0  0  0  0
   -6.0728    2.4750    0.0000 C   0  0  0  0  0  0  0  0  0  0  0
   -5.3584    2.8874    0.0000 C   0  0  0  0  0  0  0  0  0  0  0
   -4.6439    2.4750    0.0000 N   0  0  0  0  0  0  0  0  0  0  0
   -5.3584    3.7124    0.0000 O   0  0  0  0  0  0  0  0  0  0  0
   -4.6439    1.6500    0.0000 C   0  0  0  0  0  0  0  0  0  0  0
   -3.9295    1.2375    0.0000 C   0  0  0  0  0  0  0  0  0  0  0
   -3.2150    1.6500    0.0000 N   0  0  0  0  0  0  0  0  0  0  0
   -3.2150    2.4750    0.0000 C   0  0  0  0  0  0  0  0  0  0  0
   -3.9295    2.8874    0.0000 C   0  0  0  0  0  0  0  0  0  0  0
   -2.5006    1.2375    0.0000 C   0  0  0  0  0  0  0  0  0  0  0
   -2.5006    0.4125    0.0000 C   0  0  0  0  0  0  0  0  0  0  0
   -1.7861    0.0000    0.0000 C   0  0  0  0  0  0  0  0  0  0  0
   -1.0717    0.4125    0.0000 C   0  0  0  0  0  0  0  0  0  0  0
   -1.0717    1.2375    0.0000 C   0  0  0  0  0  0  0  0  0  0  0
   -1.7861    1.6500    0.0000 C   0  0  0  0  0  0  0  0  0  0  0
   -0.3572    1.6500    0.0000 O   0  0  0  0  0  0  0  0  0  0  0
   -0.3572    0.0000    0.0000 N   0  0  0  0  0  0  0  0  0  0  0
   -0.3572   -0.8249    0.0000 C   0  0  0  0  0  0  0  0  0  0  0
   -1.0717   -1.2375    0.0000 C   0  0  0  0  0  0  0  0  0  0  0
   -1.0717   -2.0624    0.0000 C   0  0  0  0  0  0  0  0  0  0  0
   -0.3572   -2.4750    0.0000 N   0  0  0  0  0  0  0  0  0  0  0
    0.3572   -2.0624    0.0000 C   0  0  0  0  0  0  0  0  0  0  0
    0.3572   -1.2375    0.0000 N   0  0  0  0  0  0  0  0  0  0  0
   -1.7861   -0.8249    0.0000 Cl  0  0  0  0  0  0  0  0  0  0  0
    1.0717   -2.4750    0.0000 N   0  0  0  0  0  0  0  0  0  0  0
    1.7861   -2.0624    0.0000 C   0  0  0  0  0  0  0  0  0  0  0
    2.5006   -2.4750    0.0000 C   0  0  0  0  0  0  0  0  0  0  0
    3.2150   -2.0624    0.0000 C   0  0  0  0  0  0  0  0  0  0  0
    3.2150   -1.2375    0.0000 C   0  0  0  0  0  0  0  0  0  0  0
    2.5006   -0.8249    0.0000 C   0  0  0  0  0  0  0  0  0  0  0
    1.7861   -1.2375    0.0000 C   0  0  0  0  0  0  0  0  0  0  0
    2.5006   -3.2999    0.0000 O   0  0  0  0  0  0  0  0  0  0  0
    3.2150   -3.7124    0.0000 C   0  0  0  0  0  0  0  0  0  0  0
    3.9295   -0.8249    0.0000 N   0  0  0  0  0  0  0  0  0  0  0
    4.6439   -1.2375    0.0000 C   0  0  0  0  0  0  0  0  0  0  0
    5.3584   -0.8249    0.0000 C   0  0  0  0  0  0  0  0  0  0  0
    5.3584    0.0000    0.0000 N   0  0  0  0  0  0  0  0  0  0  0
    4.6439    0.4125    0.0000 C   0  0  0  0  0  0  0  0  0  0  0
    3.9295    0.0000    0.0000 C   0  0  0  0  0  0  0  0  0  0  0
    6.0728    0.4125    0.0000 C   0  0  0  0  0  0  0  0  0  0  0
    6.7873    0.0000    0.0000 C   0  0  0  0  0  0  0  0  0  0  0
    6.0728    1.2375    0.0000 O   0  0  0  0  0  0  0  0  0  0  0
   -0.3572    2.4750    0.0000 C   0  0  0  0  0  0  0  0  0  0  0
   -1.0716    2.8875    0.0000 F   0  0  0  0  0  0  0  0  0  0  0
    0.3573    2.8874    0.0000 F   0  0  0  0  0  0  0  0  0  0  0
  1  2  1  0  0  0  0
  2  3  1  0  0  0  0
  3  4  1  0  0  0  0
  3  5  2  0  0  0  0
  4  6  1  0  0  0  0
  6  7  1  0  0  0  0
  7  8  1  0  0  0  0
  8  9  1  0  0  0  0
  9 10  1  0  0  0  0
 10  4  1  0  0  0  0
  8 11  1  0  0  0  0
 11 12  4  0  0  0  0
 12 13  4  0  0  0  0
 13 14  4  0  0  0  0
 14 15  4  0  0  0  0
 15 16  4  0  0  0  0
 16 11  4  0  0  0  0
 15 17  1  0  0  0  0
 14 18  1  0  0  0  0
 18 19  1  0  0  0  0
 19 20  4  0  0  0  0
 20 21  4  0  0  0  0
 21 22  4  0  0  0  0
 22 23  4  0  0  0  0
 23 24  4  0  0  0  0
 24 19  4  0  0  0  0
 20 25  1  0  0  0  0
 23 26  1  0  0  0  0
 26 27  1  0  0  0  0
 27 28  4  0  0  0  0
 28 29  4  0  0  0  0
 29 30  4  0  0  0  0
 30 31  4  0  0  0  0
 31 32  4  0  0  0  0
 32 27  4  0  0  0  0
 28 33  1  0  0  0  0
 33 34  1  0  0  0  0
 30 35  1  0  0  0  0
 35 36  1  0  0  0  0
 36 37  1  0  0  0  0
 37 38  1  0  0  0  0
 38 39  1  0  0  0  0
 39 40  1  0  0  0  0
 40 35  1  0  0  0  0
 38 41  1  0  0  0  0
 41 42  1  0  0  0  0
 41 43  2  0  0  0  0
 17 44  1  0  0  0  0
 44 45  1  0  0  0  0
 44 46  1  0  0  0  0
M  END
> <From>
www.bindingDB.org

> <BindingDB Reactant_set_id>
345762

> <Ligand InChI>
InChI=1S/C30H35ClF2N8O5/c1-19(43)38-7-9-39(10-8-38)20-3-5-23(25(15-20)45-2)36-30-34-17-22(31)28(37-30)35-24-6-4-21(16-26(24)46-29(32)33)40-11-13-41(14-12-40)27(44)18-42/h3-6,15-17,29,42H,7-14,18H2,1-2H3,(H2,34,35,36,37)

> <Ligand InChI Key>
DKVDVODJDTXKBQ-UHFFFAOYSA-N

> <BindingDB MonomerID>
193506

> <BindingDB Ligand Name>
US9199944, 88

> <Target Name Assigned by Curator or DataSource>
ALK tyrosine kinase receptor

> <Target Source Organism According to Curator or DataSource>
Homo sapiens

> <Ki (nM)>


> <IC50 (nM)>
 4

> <Kd (nM)>


> <EC50 (nM)>


> <kon (M-1-s-1)>


> <koff (s-1)>


> <pH>


> <Temp C>
25.00

> <Curation/DataSource>
US Patent

> <Article DOI>


> <PMID>


> <PubChem AID>


> <Patent Number>
US9199944

> <Authors>
Lee, K; Kim, HR; Park, CH; Lee, CO; Lee, JK; Jung, HJ; Cho, SY; Chae, CH; Choi, SU; Ha, JD

> <Institution>
KOREA RESEARCH INSTITUTE OF CHEMICAL TECHNOLOGY

> <Link to Ligand in BindingDB>
http://www.bindingdb.org/bind/chemsearch/marvin/MolStructure.jsp?monomerid=193506

> <Link to Ligand-Target Pair in BindingDB>
http://www.bindingdb.org/jsp/dbsearch/PrimarySearch_ki.jsp?energyterm=kJ/mole&tag=pol&polymerid=5809&target=ALK+tyrosine+kinase+receptor&column=ki&startPg=0&Increment=50&submit=Search

> <Link to Ligand-Target Pair in BindingDB>
http://www.bindingdb.org/jsp/dbsearch/PrimarySearch_ki.jsp?energyterm=kJ/mole&tag=r21&monomerid=193506&enzyme=ALK+tyrosine+kinase+receptor&column=ki&startPg=0&Increment=50&submit=Search

> <Ligand HET ID in PDB>


> <PDB ID(s) for Ligand-Target Complex>


> <PubChem CID>
118105700

> <PubChem SID>
317230826

> <ChEBI ID of Ligand>


> <ChEMBL ID of Ligand>


> <DrugBank ID of Ligand>


> <IUPHAR_GRAC ID of Ligand>


> <KEGG ID of Ligand>


> <ZINC ID of Ligand>


> <Number of Protein Chains in Target (>1 implies a multichain complex)>
1

> <BindingDB Target Chain Sequence>
MGAIGLLWLLPLLLSTAAVGSGMGTGQRAGSPAAGPPLQPREPLSYSRLQRKSLAVDFVVPSLFRVYARDLLLPPSSSELKAGRPEARGSLALDCAPLLRLLGPAPGVSWTAGSPAPAEARTLSRVLKGGSVRKLRRAKQLVLELGEEAILEGCVGPPGEAAVGLLQFNLSELFSWWIRQGEGRLRIRLMPEKKASEVGREGRLSAAIRASQPRLLFQIFGTGHSSLESPTNMPSPSPDYFTWNLTWIMKDSFPFLSHRSRYGLECSFDFPCELEYSPPLHDLRNQSWSWRRIPSEEASQMDLLDGPGAERSKEMPRGSFLLLNTSADSKHTILSPWMRSSSEHCTLAVSVHRHLQPSGRYIAQLLPHNEAAREILLMPTPGKHGWTVLQGRIGRPDNPFRVALEYISSGNRSLSAVDFFALKNCSEGTSPGSKMALQSSFTCWNGTVLQLGQACDFHQDCAQGEDESQMCRKLPVGFYCNFEDGFCGWTQGTLSPHTPQWQVRTLKDARFQDHQDHALLLSTTDVPASESATVTSATFPAPIKSSPCELRMSWLIRGVLRGNVSLVLVENKTGKEQGRMVWHVAAYEGLSLWQWMVLPLLDVSDRFWLQMVAWWGQGSRAIVAFDNISISLDCYLTISGEDKILQNTAPKSRNLFERNPNKELKPGENSPRQTPIFDPTVHWLFTTCGASGPHGPTQAQCNNAYQNSNLSVEVGSEGPLKGIQIWKVPATDTYSISGYGAAGGKGGKNTMMRSHGVSVLGIFNLEKDDMLYILVGQQGEDACPSTNQLIQKVCIGENNVIEEEIRVNRSVHEWAGGGGGGGGATYVFKMKDGVPVPLIIAAGGGGRAYGAKTDTFHPERLENNSSVLGLNGNSGAAGGGGGWNDNTSLLWAGKSLQEGATGGHSCPQAMKKWGWETRGGFGGGGGGCSSGGGGGGYIGGNAASNNDPEMDGEDGVSFISPLGILYTPALKVMEGHGEVNIKHYLNCSHCEVDECHMDPESHKVICFCDHGTVLAEDGVSCIVSPTPEPHLPLSLILSVVTSALVAALVLAFSGIMIVYRRKHQELQAMQMELQSPEYKLSKLRTSTIMTDYNPNYCFAGKTSSISDLKEVPRKNITLIRGLGHGAFGEVYEGQVSGMPNDPSPLQVAVKTLPEVCSEQDELDFLMEALIISKFNHQNIVRCIGVSLQSLPRFILLELMAGGDLKSFLRETRPRPSQPSSLAMLDLLHVARDIACGCQYLEENHFIHRDIAARNCLLTCPGPGRVAKIGDFGMARDIYRASYYRKGGCAMLPVKWMPPEAFMEGIFTSKTDTWSFGVLLWEIFSLGYMPYPSKSNQEVLEFVTSGGRMDPPKNCPGPVYRIMTQCWQHQPEDRPNFAIILERIEYCTQDPDVINTALPIEYGPLVEEEEKVPVRPKDPEGVPPLLVSQQAKREEERSPAAPPPLPTTSSGKAAKKPTAAEISVRVPRGPAVEGGHVNMAFSQSNPPSELHKVHGSRNKPTSLWNPTYGSWFTEKPTKKNNPIAKKEPHDRGNLGLEGSCTVPPNVATGRLPGASLLLEPSSLTANMKEVPLFRLRHFPCGNVNYGYQQQGLPLEAATAPGAGHYEDTILKSKNSMNQPGP

> <PDB ID(s) of Target Chain>
2XB7,2XBA,3AOX,5FTO,5FTQ,6E0R,6EBW,6EDL,6MX8

> <UniProt (SwissProt) Recommended Name of Target Chain>
ALK tyrosine kinase receptor

> <UniProt (SwissProt) Entry Name of Target Chain>
ALK_HUMAN

> <UniProt (SwissProt) Primary ID of Target Chain>
Q9UM73

> <UniProt (SwissProt) Secondary ID(s) of Target Chain>
Q4ZFX9,Q53QQ6,Q53RZ4,Q59FI3,Q9Y4K6

> <UniProt (SwissProt) Alternative ID(s) of Target Chain>


> <UniProt (TrEMBL) Submitted Name of Target Chain>


> <UniProt (TrEMBL) Entry Name of Target Chain>


> <UniProt (TrEMBL) Primary ID of Target Chain>


> <UniProt (TrEMBL) Secondary ID(s) of Target Chain>


> <UniProt (TrEMBL) Alternative ID(s) of Target Chain>


$$$$
00187001.cdx
  Mrv0541 10181809492D          

 32 35  0  0  0  0            999 V2000
   -3.1644    1.9115    0.0000 C   0  0  0  0  0  0  0  0  0  0  0  0
   -3.1644    1.0865    0.0000 C   0  0  0  0  0  0  0  0  0  0  0  0
   -2.4500    0.6740    0.0000 C   0  0  0  0  0  0  0  0  0  0  0  0
   -1.7355    1.0865    0.0000 C   0  0  0  0  0  0  0  0  0  0  0  0
   -1.7355    1.9115    0.0000 C   0  0  0  0  0  0  0  0  0  0  0  0
   -2.4500    2.3240    0.0000 C   0  0  0  0  0  0  0  0  0  0  0  0
   -1.0210    0.6740    0.0000 N   0  0  0  0  0  0  0  0  0  0  0  0
   -0.3065    1.0865    0.0000 C   0  0  0  0  0  0  0  0  0  0  0  0
   -0.3065    1.9115    0.0000 C   0  0  0  0  0  0  0  0  0  0  0  0
   -1.0210    2.3240    0.0000 S   0  0  0  0  0  0  0  0  0  0  0  0
   -1.0210   -0.1510    0.0000 C   0  0  0  0  0  0  0  0  0  0  0  0
    0.4079    2.3240    0.0000 C   0  0  0  0  0  0  0  0  0  0  0  0
   -0.6085    3.0385    0.0000 O   0  0  0  0  0  0  0  0  0  0  0  0
   -1.6044    2.9074    0.0000 O   0  0  0  0  0  0  0  0  0  0  0  0
   -1.7355   -0.5635    0.0000 C   0  0  0  0  0  0  0  0  0  0  0  0
   -1.7355   -1.3885    0.0000 C   0  0  0  0  0  0  0  0  0  0  0  0
   -1.0210   -1.8010    0.0000 N   0  0  0  0  0  0  0  0  0  0  0  0
   -0.3065   -1.3885    0.0000 C   0  0  0  0  0  0  0  0  0  0  0  0
   -0.3065   -0.5635    0.0000 N   0  0  0  0  0  0  0  0  0  0  0  0
   -2.4500   -0.1510    0.0000 Cl  0  0  0  0  0  0  0  0  0  0  0  0
    0.4079   -1.8010    0.0000 N   0  0  0  0  0  0  0  0  0  0  0  0
    1.1224   -1.3885    0.0000 C   0  0  0  0  0  0  0  0  0  0  0  0
    1.8369   -1.8010    0.0000 C   0  0  0  0  0  0  0  0  0  0  0  0
    2.5513   -1.3885    0.0000 C   0  0  0  0  0  0  0  0  0  0  0  0
    2.5513   -0.5635    0.0000 C   0  0  0  0  0  0  0  0  0  0  0  0
    1.8369   -0.1510    0.0000 C   0  0  0  0  0  0  0  0  0  0  0  0
    1.1224   -0.5635    0.0000 C   0  0  0  0  0  0  0  0  0  0  0  0
    3.1644   -0.0115    0.0000 C   0  0  0  0  0  0  0  0  0  0  0  0
    2.8289    0.7422    0.0000 N   0  0  0  0  0  0  0  0  0  0  0  0
    2.0084    0.6560    0.0000 C   0  0  0  0  0  0  0  0  0  0  0  0
    1.8369   -2.6260    0.0000 O   0  0  0  0  0  0  0  0  0  0  0  0
    2.5513   -3.0385    0.0000 C   0  0  0  0  0  0  0  0  0  0  0  0
  1  2  4  0  0  0  0
  2  3  4  0  0  0  0
  3  4  4  0  0  0  0
  4  5  4  0  0  0  0
  5  6  4  0  0  0  0
  6  1  4  0  0  0  0
  4  7  1  0  0  0  0
  8  9  1  0  0  0  0
  9 10  1  0  0  0  0
 10  5  1  0  0  0  0
  7 11  1  0  0  0  0
  9 12  1  0  0  0  0
 10 13  2  0  0  0  0
 10 14  2  0  0  0  0
 11 15  4  0  0  0  0
 15 16  4  0  0  0  0
 16 17  4  0  0  0  0
 17 18  4  0  0  0  0
 18 19  4  0  0  0  0
 19 11  4  0  0  0  0
 15 20  1  0  0  0  0
 18 21  1  0  0  0  0
 21 22  1  0  0  0  0
 22 23  4  0  0  0  0
 23 24  4  0  0  0  0
 24 25  4  0  0  0  0
 25 26  4  0  0  0  0
 26 27  4  0  0  0  0
 27 22  4  0  0  0  0
 25 28  1  0  0  0  0
 28 29  1  0  0  0  0
 29 30  1  0  0  0  0
 30 26  1  0  0  0  0
 23 31  1  0  0  0  0
 31 32  1  0  0  0  0
M  END
> <From>
www.bindingDB.org

> <BindingDB Reactant_set_id>
490360

> <Ligand InChI>
InChI=1S/C22H24ClN5O3S/c1-13(2)32(29,30)20-7-5-4-6-17(20)26-21-16(23)12-25-22(28-21)27-18-8-14-10-24-11-15(14)9-19(18)31-3/h4-9,12-13,24H,10-11H2,1-3H3,(H2,25,26,27,28)

> <Ligand InChI Key>
NDDOUDVZCLDMBP-UHFFFAOYSA-N

> <BindingDB MonomerID>
243369

> <BindingDB Ligand Name>
5-chloro-n4-(2-(Isopropylsulfonyl)Phenyl)-n2-(6-methoxyisoindolin-5-yl)Pyrimidine-2,4-diamine::US10053458, 1

> <Target Name Assigned by Curator or DataSource>
ALK tyrosine kinase receptor

> <Target Source Organism According to Curator or DataSource>
Homo sapiens

> <Ki (nM)>


> <IC50 (nM)>
<10.00

> <Kd (nM)>


> <EC50 (nM)>


> <kon (M-1-s-1)>


> <koff (s-1)>


> <pH>


> <Temp C>
25.00

> <Curation/DataSource>
US Patent

> <Article DOI>


> <PMID>


> <PubChem AID>


> <Patent Number>
US10053458

> <Authors>
Yun, CS; Kim, HR; Cho, SY; Jung, HJ; Lee, K; Chae, CH; Lee, CO; Park, CH; Kim, P; Hwang, JY; Ha, JD; Ahn, SJ

> <Institution>
KOREA RESEARCH INSTITUTE OF CHEMICAL TECHNOLOGY

> <Link to Ligand in BindingDB>
http://www.bindingdb.org/bind/chemsearch/marvin/MolStructure.jsp?monomerid=243369

> <Link to Ligand-Target Pair in BindingDB>
http://www.bindingdb.org/jsp/dbsearch/PrimarySearch_ki.jsp?energyterm=kJ/mole&tag=pol&polymerid=5809&target=ALK+tyrosine+kinase+receptor&column=ki&startPg=0&Increment=50&submit=Search

> <Link to Ligand-Target Pair in BindingDB>
http://www.bindingdb.org/jsp/dbsearch/PrimarySearch_ki.jsp?energyterm=kJ/mole&tag=r21&monomerid=243369&enzyme=ALK+tyrosine+kinase+receptor&column=ki&startPg=0&Increment=50&submit=Search

> <Ligand HET ID in PDB>


> <PDB ID(s) for Ligand-Target Complex>


> <PubChem CID>
129048516

> <PubChem SID>
376221752

> <ChEBI ID of Ligand>


> <ChEMBL ID of Ligand>


> <DrugBank ID of Ligand>


> <IUPHAR_GRAC ID of Ligand>


> <KEGG ID of Ligand>


> <ZINC ID of Ligand>


> <Number of Protein Chains in Target (>1 implies a multichain complex)>
1

> <BindingDB Target Chain Sequence>
MGAIGLLWLLPLLLSTAAVGSGMGTGQRAGSPAAGPPLQPREPLSYSRLQRKSLAVDFVVPSLFRVYARDLLLPPSSSELKAGRPEARGSLALDCAPLLRLLGPAPGVSWTAGSPAPAEARTLSRVLKGGSVRKLRRAKQLVLELGEEAILEGCVGPPGEAAVGLLQFNLSELFSWWIRQGEGRLRIRLMPEKKASEVGREGRLSAAIRASQPRLLFQIFGTGHSSLESPTNMPSPSPDYFTWNLTWIMKDSFPFLSHRSRYGLECSFDFPCELEYSPPLHDLRNQSWSWRRIPSEEASQMDLLDGPGAERSKEMPRGSFLLLNTSADSKHTILSPWMRSSSEHCTLAVSVHRHLQPSGRYIAQLLPHNEAAREILLMPTPGKHGWTVLQGRIGRPDNPFRVALEYISSGNRSLSAVDFFALKNCSEGTSPGSKMALQSSFTCWNGTVLQLGQACDFHQDCAQGEDESQMCRKLPVGFYCNFEDGFCGWTQGTLSPHTPQWQVRTLKDARFQDHQDHALLLSTTDVPASESATVTSATFPAPIKSSPCELRMSWLIRGVLRGNVSLVLVENKTGKEQGRMVWHVAAYEGLSLWQWMVLPLLDVSDRFWLQMVAWWGQGSRAIVAFDNISISLDCYLTISGEDKILQNTAPKSRNLFERNPNKELKPGENSPRQTPIFDPTVHWLFTTCGASGPHGPTQAQCNNAYQNSNLSVEVGSEGPLKGIQIWKVPATDTYSISGYGAAGGKGGKNTMMRSHGVSVLGIFNLEKDDMLYILVGQQGEDACPSTNQLIQKVCIGENNVIEEEIRVNRSVHEWAGGGGGGGGATYVFKMKDGVPVPLIIAAGGGGRAYGAKTDTFHPERLENNSSVLGLNGNSGAAGGGGGWNDNTSLLWAGKSLQEGATGGHSCPQAMKKWGWETRGGFGGGGGGCSSGGGGGGYIGGNAASNNDPEMDGEDGVSFISPLGILYTPALKVMEGHGEVNIKHYLNCSHCEVDECHMDPESHKVICFCDHGTVLAEDGVSCIVSPTPEPHLPLSLILSVVTSALVAALVLAFSGIMIVYRRKHQELQAMQMELQSPEYKLSKLRTSTIMTDYNPNYCFAGKTSSISDLKEVPRKNITLIRGLGHGAFGEVYEGQVSGMPNDPSPLQVAVKTLPEVCSEQDELDFLMEALIISKFNHQNIVRCIGVSLQSLPRFILLELMAGGDLKSFLRETRPRPSQPSSLAMLDLLHVARDIACGCQYLEENHFIHRDIAARNCLLTCPGPGRVAKIGDFGMARDIYRASYYRKGGCAMLPVKWMPPEAFMEGIFTSKTDTWSFGVLLWEIFSLGYMPYPSKSNQEVLEFVTSGGRMDPPKNCPGPVYRIMTQCWQHQPEDRPNFAIILERIEYCTQDPDVINTALPIEYGPLVEEEEKVPVRPKDPEGVPPLLVSQQAKREEERSPAAPPPLPTTSSGKAAKKPTAAEISVRVPRGPAVEGGHVNMAFSQSNPPSELHKVHGSRNKPTSLWNPTYGSWFTEKPTKKNNPIAKKEPHDRGNLGLEGSCTVPPNVATGRLPGASLLLEPSSLTANMKEVPLFRLRHFPCGNVNYGYQQQGLPLEAATAPGAGHYEDTILKSKNSMNQPGP

> <PDB ID(s) of Target Chain>
2XB7,2XBA,3AOX,5FTO,5FTQ,6E0R,6EBW,6EDL,6MX8

> <UniProt (SwissProt) Recommended Name of Target Chain>
ALK tyrosine kinase receptor

> <UniProt (SwissProt) Entry Name of Target Chain>
ALK_HUMAN

> <UniProt (SwissProt) Primary ID of Target Chain>
Q9UM73

> <UniProt (SwissProt) Secondary ID(s) of Target Chain>
Q4ZFX9,Q53QQ6,Q53RZ4,Q59FI3,Q9Y4K6

> <UniProt (SwissProt) Alternative ID(s) of Target Chain>


> <UniProt (TrEMBL) Submitted Name of Target Chain>


> <UniProt (TrEMBL) Entry Name of Target Chain>


> <UniProt (TrEMBL) Primary ID of Target Chain>


> <UniProt (TrEMBL) Secondary ID(s) of Target Chain>


> <UniProt (TrEMBL) Alternative ID(s) of Target Chain>


$$$$
00188001.cdx
  Mrv0541 10181809492D          

 33 36  0  0  0  0            999 V2000
   -3.2151    1.9115    0.0000 C   0  0  0  0  0  0  0  0  0  0  0  0
   -3.2151    1.0865    0.0000 C   0  0  0  0  0  0  0  0  0  0  0  0
   -2.5006    0.6740    0.0000 C   0  0  0  0  0  0  0  0  0  0  0  0
   -1.7862    1.0865    0.0000 C   0  0  0  0  0  0  0  0  0  0  0  0
   -1.7862    1.9115    0.0000 C   0  0  0  0  0  0  0  0  0  0  0  0
   -2.5006    2.3240    0.0000 C   0  0  0  0  0  0  0  0  0  0  0  0
   -1.0717    0.6740    0.0000 N   0  0  0  0  0  0  0  0  0  0  0  0
   -0.3572    1.0865    0.0000 C   0  0  0  0  0  0  0  0  0  0  0  0
   -0.3572    1.9115    0.0000 C   0  0  0  0  0  0  0  0  0  0  0  0
   -1.0717    2.3240    0.0000 S   0  0  0  0  0  0  0  0  0  0  0  0
   -1.0717   -0.1510    0.0000 C   0  0  0  0  0  0  0  0  0  0  0  0
    0.3572    2.3240    0.0000 C   0  0  0  0  0  0  0  0  0  0  0  0
   -0.6592    3.0385    0.0000 O   0  0  0  0  0  0  0  0  0  0  0  0
   -1.6551    2.9074    0.0000 O   0  0  0  0  0  0  0  0  0  0  0  0
   -1.7862   -0.5635    0.0000 C   0  0  0  0  0  0  0  0  0  0  0  0
   -1.7862   -1.3885    0.0000 C   0  0  0  0  0  0  0  0  0  0  0  0
   -1.0717   -1.8010    0.0000 N   0  0  0  0  0  0  0  0  0  0  0  0
   -0.3572   -1.3885    0.0000 C   0  0  0  0  0  0  0  0  0  0  0  0
   -0.3572   -0.5635    0.0000 N   0  0  0  0  0  0  0  0  0  0  0  0
   -2.5006   -0.1510    0.0000 Cl  0  0  0  0  0  0  0  0  0  0  0  0
    0.3572   -1.8010    0.0000 N   0  0  0  0  0  0  0  0  0  0  0  0
    1.0717   -1.3885    0.0000 C   0  0  0  0  0  0  0  0  0  0  0  0
    1.7862   -1.8010    0.0000 C   0  0  0  0  0  0  0  0  0  0  0  0
    2.5006   -1.3885    0.0000 C   0  0  0  0  0  0  0  0  0  0  0  0
    2.5006   -0.5635    0.0000 C   0  0  0  0  0  0  0  0  0  0  0  0
    1.7862   -0.1510    0.0000 C   0  0  0  0  0  0  0  0  0  0  0  0
    1.0717   -0.5635    0.0000 C   0  0  0  0  0  0  0  0  0  0  0  0
    1.7862   -2.6260    0.0000 O   0  0  0  0  0  0  0  0  0  0  0  0
    2.5006   -3.0385    0.0000 C   0  0  0  0  0  0  0  0  0  0  0  0
    3.2151   -0.1510    0.0000 C   0  0  0  0  0  0  0  0  0  0  0  0
    3.2151    0.6740    0.0000 N   0  0  0  0  0  0  0  0  0  0  0  0
    2.5006    1.0865    0.0000 C   0  0  0  0  0  0  0  0  0  0  0  0
    1.7862    0.6740    0.0000 C   0  0  0  0  0  0  0  0  0  0  0  0
  1  2  4  0  0  0  0
  2  3  4  0  0  0  0
  3  4  4  0  0  0  0
  4  5  4  0  0  0  0
  5  6  4  0  0  0  0
  6  1  4  0  0  0  0
  4  7  1  0  0  0  0
  8  9  1  0  0  0  0
  9 10  1  0  0  0  0
 10  5  1  0  0  0  0
  7 11  1  0  0  0  0
  9 12  1  0  0  0  0
 10 13  2  0  0  0  0
 10 14  2  0  0  0  0
 11 15  4  0  0  0  0
 15 16  4  0  0  0  0
 16 17  4  0  0  0  0
 17 18  4  0  0  0  0
 18 19  4  0  0  0  0
 19 11  4  0  0  0  0
 15 20  1  0  0  0  0
 18 21  1  0  0  0  0
 21 22  1  0  0  0  0
 22 23  4  0  0  0  0
 23 24  4  0  0  0  0
 24 25  4  0  0  0  0
 25 26  4  0  0  0  0
 26 27  4  0  0  0  0
 27 22  4  0  0  0  0
 23 28  1  0  0  0  0
 28 29  1  0  0  0  0
 25 30  1  0  0  0  0
 30 31  1  0  0  0  0
 31 32  1  0  0  0  0
 32 33  1  0  0  0  0
 33 26  1  0  0  0  0
M  END
> <From>
www.bindingDB.org

> <BindingDB Reactant_set_id>
490362

> <Ligand InChI>
InChI=1S/C23H26ClN5O3S/c1-14(2)33(30,31)21-7-5-4-6-18(21)27-22-17(24)13-26-23(29-22)28-19-10-15-8-9-25-12-16(15)11-20(19)32-3/h4-7,10-11,13-14,25H,8-9,12H2,1-3H3,(H2,26,27,28,29)

> <Ligand InChI Key>
NEBHHPFFBCTEBR-UHFFFAOYSA-N

> <BindingDB MonomerID>
243370

> <BindingDB Ligand Name>
5-chloro-N4-(2-(isopropylsulfonyl)phenyl-N2-(7-methoxy-1,2,3,4-tetrahydroisoquinolin-6-yl)pyrimidine-2,4-diamine::US10053458, 2

> <Target Name Assigned by Curator or DataSource>
ALK tyrosine kinase receptor

> <Target Source Organism According to Curator or DataSource>
Homo sapiens

> <Ki (nM)>


> <IC50 (nM)>
 1.000

> <Kd (nM)>


> <EC50 (nM)>


> <kon (M-1-s-1)>


> <koff (s-1)>


> <pH>


> <Temp C>
25.00

> <Curation/DataSource>
US Patent

> <Article DOI>


> <PMID>


> <PubChem AID>


> <Patent Number>
US10053458

> <Authors>
Yun, CS; Kim, HR; Cho, SY; Jung, HJ; Lee, K; Chae, CH; Lee, CO; Park, CH; Kim, P; Hwang, JY; Ha, JD; Ahn, SJ

> <Institution>
KOREA RESEARCH INSTITUTE OF CHEMICAL TECHNOLOGY

> <Link to Ligand in BindingDB>
http://www.bindingdb.org/bind/chemsearch/marvin/MolStructure.jsp?monomerid=243370

> <Link to Ligand-Target Pair in BindingDB>
http://www.bindingdb.org/jsp/dbsearch/PrimarySearch_ki.jsp?energyterm=kJ/mole&tag=pol&polymerid=5809&target=ALK+tyrosine+kinase+receptor&column=ki&startPg=0&Increment=50&submit=Search

> <Link to Ligand-Target Pair in BindingDB>
http://www.bindingdb.org/jsp/dbsearch/PrimarySearch_ki.jsp?energyterm=kJ/mole&tag=r21&monomerid=243370&enzyme=ALK+tyrosine+kinase+receptor&column=ki&startPg=0&Increment=50&submit=Search

> <Ligand HET ID in PDB>


> <PDB ID(s) for Ligand-Target Complex>


> <PubChem CID>
78319165

> <PubChem SID>
376221753

> <ChEBI ID of Ligand>


> <ChEMBL ID of Ligand>


> <DrugBank ID of Ligand>


> <IUPHAR_GRAC ID of Ligand>


> <KEGG ID of Ligand>


> <ZINC ID of Ligand>


> <Number of Protein Chains in Target (>1 implies a multichain complex)>
1

> <BindingDB Target Chain Sequence>
MGAIGLLWLLPLLLSTAAVGSGMGTGQRAGSPAAGPPLQPREPLSYSRLQRKSLAVDFVVPSLFRVYARDLLLPPSSSELKAGRPEARGSLALDCAPLLRLLGPAPGVSWTAGSPAPAEARTLSRVLKGGSVRKLRRAKQLVLELGEEAILEGCVGPPGEAAVGLLQFNLSELFSWWIRQGEGRLRIRLMPEKKASEVGREGRLSAAIRASQPRLLFQIFGTGHSSLESPTNMPSPSPDYFTWNLTWIMKDSFPFLSHRSRYGLECSFDFPCELEYSPPLHDLRNQSWSWRRIPSEEASQMDLLDGPGAERSKEMPRGSFLLLNTSADSKHTILSPWMRSSSEHCTLAVSVHRHLQPSGRYIAQLLPHNEAAREILLMPTPGKHGWTVLQGRIGRPDNPFRVALEYISSGNRSLSAVDFFALKNCSEGTSPGSKMALQSSFTCWNGTVLQLGQACDFHQDCAQGEDESQMCRKLPVGFYCNFEDGFCGWTQGTLSPHTPQWQVRTLKDARFQDHQDHALLLSTTDVPASESATVTSATFPAPIKSSPCELRMSWLIRGVLRGNVSLVLVENKTGKEQGRMVWHVAAYEGLSLWQWMVLPLLDVSDRFWLQMVAWWGQGSRAIVAFDNISISLDCYLTISGEDKILQNTAPKSRNLFERNPNKELKPGENSPRQTPIFDPTVHWLFTTCGASGPHGPTQAQCNNAYQNSNLSVEVGSEGPLKGIQIWKVPATDTYSISGYGAAGGKGGKNTMMRSHGVSVLGIFNLEKDDMLYILVGQQGEDACPSTNQLIQKVCIGENNVIEEEIRVNRSVHEWAGGGGGGGGATYVFKMKDGVPVPLIIAAGGGGRAYGAKTDTFHPERLENNSSVLGLNGNSGAAGGGGGWNDNTSLLWAGKSLQEGATGGHSCPQAMKKWGWETRGGFGGGGGGCSSGGGGGGYIGGNAASNNDPEMDGEDGVSFISPLGILYTPALKVMEGHGEVNIKHYLNCSHCEVDECHMDPESHKVICFCDHGTVLAEDGVSCIVSPTPEPHLPLSLILSVVTSALVAALVLAFSGIMIVYRRKHQELQAMQMELQSPEYKLSKLRTSTIMTDYNPNYCFAGKTSSISDLKEVPRKNITLIRGLGHGAFGEVYEGQVSGMPNDPSPLQVAVKTLPEVCSEQDELDFLMEALIISKFNHQNIVRCIGVSLQSLPRFILLELMAGGDLKSFLRETRPRPSQPSSLAMLDLLHVARDIACGCQYLEENHFIHRDIAARNCLLTCPGPGRVAKIGDFGMARDIYRASYYRKGGCAMLPVKWMPPEAFMEGIFTSKTDTWSFGVLLWEIFSLGYMPYPSKSNQEVLEFVTSGGRMDPPKNCPGPVYRIMTQCWQHQPEDRPNFAIILERIEYCTQDPDVINTALPIEYGPLVEEEEKVPVRPKDPEGVPPLLVSQQAKREEERSPAAPPPLPTTSSGKAAKKPTAAEISVRVPRGPAVEGGHVNMAFSQSNPPSELHKVHGSRNKPTSLWNPTYGSWFTEKPTKKNNPIAKKEPHDRGNLGLEGSCTVPPNVATGRLPGASLLLEPSSLTANMKEVPLFRLRHFPCGNVNYGYQQQGLPLEAATAPGAGHYEDTILKSKNSMNQPGP

> <PDB ID(s) of Target Chain>
2XB7,2XBA,3AOX,5FTO,5FTQ,6E0R,6EBW,6EDL,6MX8

> <UniProt (SwissProt) Recommended Name of Target Chain>
ALK tyrosine kinase receptor

> <UniProt (SwissProt) Entry Name of Target Chain>
ALK_HUMAN

> <UniProt (SwissProt) Primary ID of Target Chain>
Q9UM73

> <UniProt (SwissProt) Secondary ID(s) of Target Chain>
Q4ZFX9,Q53QQ6,Q53RZ4,Q59FI3,Q9Y4K6

> <UniProt (SwissProt) Alternative ID(s) of Target Chain>


> <UniProt (TrEMBL) Submitted Name of Target Chain>


> <UniProt (TrEMBL) Entry Name of Target Chain>


> <UniProt (TrEMBL) Primary ID of Target Chain>


> <UniProt (TrEMBL) Secondary ID(s) of Target Chain>


> <UniProt (TrEMBL) Alternative ID(s) of Target Chain>


$$$$
00189001.cdx
  Mrv0541 10181809492D          

 34 37  0  0  0  0            999 V2000
   -3.5724    1.9115    0.0000 C   0  0  0  0  0  0  0  0  0  0  0  0
   -3.5724    1.0865    0.0000 C   0  0  0  0  0  0  0  0  0  0  0  0
   -2.8579    0.6740    0.0000 C   0  0  0  0  0  0  0  0  0  0  0  0
   -2.1434    1.0865    0.0000 C   0  0  0  0  0  0  0  0  0  0  0  0
   -2.1434    1.9115    0.0000 C   0  0  0  0  0  0  0  0  0  0  0  0
   -2.8579    2.3240    0.0000 C   0  0  0  0  0  0  0  0  0  0  0  0
   -1.4289    0.6740    0.0000 N   0  0  0  0  0  0  0  0  0  0  0  0
   -0.7145    1.0865    0.0000 C   0  0  0  0  0  0  0  0  0  0  0  0
   -0.7145    1.9115    0.0000 C   0  0  0  0  0  0  0  0  0  0  0  0
   -1.4289    2.3240    0.0000 S   0  0  0  0  0  0  0  0  0  0  0  0
   -1.4289   -0.1510    0.0000 C   0  0  0  0  0  0  0  0  0  0  0  0
    0.0000    2.3240    0.0000 C   0  0  0  0  0  0  0  0  0  0  0  0
   -1.0164    3.0385    0.0000 O   0  0  0  0  0  0  0  0  0  0  0  0
   -2.0123    2.9074    0.0000 O   0  0  0  0  0  0  0  0  0  0  0  0
   -2.1434   -0.5635    0.0000 C   0  0  0  0  0  0  0  0  0  0  0  0
   -2.1434   -1.3885    0.0000 C   0  0  0  0  0  0  0  0  0  0  0  0
   -1.4289   -1.8010    0.0000 N   0  0  0  0  0  0  0  0  0  0  0  0
   -0.7145   -1.3885    0.0000 C   0  0  0  0  0  0  0  0  0  0  0  0
   -0.7145   -0.5635    0.0000 N   0  0  0  0  0  0  0  0  0  0  0  0
   -2.8579   -0.1510    0.0000 Cl  0  0  0  0  0  0  0  0  0  0  0  0
    0.0000   -1.8010    0.0000 N   0  0  0  0  0  0  0  0  0  0  0  0
    0.7145   -1.3885    0.0000 C   0  0  0  0  0  0  0  0  0  0  0  0
    1.4289   -1.8010    0.0000 C   0  0  0  0  0  0  0  0  0  0  0  0
    2.1434   -1.3885    0.0000 C   0  0  0  0  0  0  0  0  0  0  0  0
    2.1434   -0.5635    0.0000 C   0  0  0  0  0  0  0  0  0  0  0  0
    1.4289   -0.1510    0.0000 C   0  0  0  0  0  0  0  0  0  0  0  0
    0.7145   -0.5635    0.0000 C   0  0  0  0  0  0  0  0  0  0  0  0
    1.4289   -2.6260    0.0000 O   0  0  0  0  0  0  0  0  0  0  0  0
    2.1434   -3.0385    0.0000 C   0  0  0  0  0  0  0  0  0  0  0  0
    2.8579   -0.1510    0.0000 C   0  0  0  0  0  0  0  0  0  0  0  0
    2.8579    0.6740    0.0000 N   0  0  0  0  0  0  0  0  0  0  0  0
    2.1434    1.0865    0.0000 C   0  0  0  0  0  0  0  0  0  0  0  0
    1.4289    0.6740    0.0000 C   0  0  0  0  0  0  0  0  0  0  0  0
    3.5724    1.0865    0.0000 C   0  0  0  0  0  0  0  0  0  0  0  0
  1  2  4  0  0  0  0
  2  3  4  0  0  0  0
  3  4  4  0  0  0  0
  4  5  4  0  0  0  0
  5  6  4  0  0  0  0
  6  1  4  0  0  0  0
  4  7  1  0  0  0  0
  8  9  1  0  0  0  0
  9 10  1  0  0  0  0
 10  5  1  0  0  0  0
  7 11  1  0  0  0  0
  9 12  1  0  0  0  0
 10 13  2  0  0  0  0
 10 14  2  0  0  0  0
 11 15  4  0  0  0  0
 15 16  4  0  0  0  0
 16 17  4  0  0  0  0
 17 18  4  0  0  0  0
 18 19  4  0  0  0  0
 19 11  4  0  0  0  0
 15 20  1  0  0  0  0
 18 21  1  0  0  0  0
 21 22  1  0  0  0  0
 22 23  4  0  0  0  0
 23 24  4  0  0  0  0
 24 25  4  0  0  0  0
 25 26  4  0  0  0  0
 26 27  4  0  0  0  0
 27 22  4  0  0  0  0
 23 28  1  0  0  0  0
 28 29  1  0  0  0  0
 25 30  1  0  0  0  0
 30 31  1  0  0  0  0
 31 32  1  0  0  0  0
 32 33  1  0  0  0  0
 33 26  1  0  0  0  0
 31 34  1  0  0  0  0
M  END
> <From>
www.bindingDB.org

> <BindingDB Reactant_set_id>
490364

> <Ligand InChI>
InChI=1S/C24H28ClN5O3S/c1-15(2)34(31,32)22-8-6-5-7-19(22)27-23-18(25)13-26-24(29-23)28-20-11-16-9-10-30(3)14-17(16)12-21(20)33-4/h5-8,11-13,15H,9-10,14H2,1-4H3,(H2,26,27,28,29)

> <Ligand InChI Key>
FEEPXYPBJLFPDV-UHFFFAOYSA-N

> <BindingDB MonomerID>
243371

> <BindingDB Ligand Name>
5-chloro-N4-(2-(isopropylsulfonyl)phenyl)-N2-(7-methoxy-2-methyl-1,2,3,4-tetrahydroisoquinolin-6-yl)pyrimidine-2,4-diamine::US10053458, 3

> <Target Name Assigned by Curator or DataSource>
ALK tyrosine kinase receptor

> <Target Source Organism According to Curator or DataSource>
Homo sapiens

> <Ki (nM)>


> <IC50 (nM)>
<10.00

> <Kd (nM)>


> <EC50 (nM)>


> <kon (M-1-s-1)>


> <koff (s-1)>


> <pH>


> <Temp C>
25.00

> <Curation/DataSource>
US Patent

> <Article DOI>


> <PMID>


> <PubChem AID>


> <Patent Number>
US10053458

> <Authors>
Yun, CS; Kim, HR; Cho, SY; Jung, HJ; Lee, K; Chae, CH; Lee, CO; Park, CH; Kim, P; Hwang, JY; Ha, JD; Ahn, SJ

> <Institution>
KOREA RESEARCH INSTITUTE OF CHEMICAL TECHNOLOGY

> <Link to Ligand in BindingDB>
http://www.bindingdb.org/bind/chemsearch/marvin/MolStructure.jsp?monomerid=243371

> <Link to Ligand-Target Pair in BindingDB>
http://www.bindingdb.org/jsp/dbsearch/PrimarySearch_ki.jsp?energyterm=kJ/mole&tag=pol&polymerid=5809&target=ALK+tyrosine+kinase+receptor&column=ki&startPg=0&Increment=50&submit=Search

> <Link to Ligand-Target Pair in BindingDB>
http://www.bindingdb.org/jsp/dbsearch/PrimarySearch_ki.jsp?energyterm=kJ/mole&tag=r21&monomerid=243371&enzyme=ALK+tyrosine+kinase+receptor&column=ki&startPg=0&Increment=50&submit=Search

> <Ligand HET ID in PDB>


> <PDB ID(s) for Ligand-Target Complex>


> <PubChem CID>
129048510

> <PubChem SID>
376221754

> <ChEBI ID of Ligand>


> <ChEMBL ID of Ligand>


> <DrugBank ID of Ligand>


> <IUPHAR_GRAC ID of Ligand>


> <KEGG ID of Ligand>


> <ZINC ID of Ligand>


> <Number of Protein Chains in Target (>1 implies a multichain complex)>
1

> <BindingDB Target Chain Sequence>
MGAIGLLWLLPLLLSTAAVGSGMGTGQRAGSPAAGPPLQPREPLSYSRLQRKSLAVDFVVPSLFRVYARDLLLPPSSSELKAGRPEARGSLALDCAPLLRLLGPAPGVSWTAGSPAPAEARTLSRVLKGGSVRKLRRAKQLVLELGEEAILEGCVGPPGEAAVGLLQFNLSELFSWWIRQGEGRLRIRLMPEKKASEVGREGRLSAAIRASQPRLLFQIFGTGHSSLESPTNMPSPSPDYFTWNLTWIMKDSFPFLSHRSRYGLECSFDFPCELEYSPPLHDLRNQSWSWRRIPSEEASQMDLLDGPGAERSKEMPRGSFLLLNTSADSKHTILSPWMRSSSEHCTLAVSVHRHLQPSGRYIAQLLPHNEAAREILLMPTPGKHGWTVLQGRIGRPDNPFRVALEYISSGNRSLSAVDFFALKNCSEGTSPGSKMALQSSFTCWNGTVLQLGQACDFHQDCAQGEDESQMCRKLPVGFYCNFEDGFCGWTQGTLSPHTPQWQVRTLKDARFQDHQDHALLLSTTDVPASESATVTSATFPAPIKSSPCELRMSWLIRGVLRGNVSLVLVENKTGKEQGRMVWHVAAYEGLSLWQWMVLPLLDVSDRFWLQMVAWWGQGSRAIVAFDNISISLDCYLTISGEDKILQNTAPKSRNLFERNPNKELKPGENSPRQTPIFDPTVHWLFTTCGASGPHGPTQAQCNNAYQNSNLSVEVGSEGPLKGIQIWKVPATDTYSISGYGAAGGKGGKNTMMRSHGVSVLGIFNLEKDDMLYILVGQQGEDACPSTNQLIQKVCIGENNVIEEEIRVNRSVHEWAGGGGGGGGATYVFKMKDGVPVPLIIAAGGGGRAYGAKTDTFHPERLENNSSVLGLNGNSGAAGGGGGWNDNTSLLWAGKSLQEGATGGHSCPQAMKKWGWETRGGFGGGGGGCSSGGGGGGYIGGNAASNNDPEMDGEDGVSFISPLGILYTPALKVMEGHGEVNIKHYLNCSHCEVDECHMDPESHKVICFCDHGTVLAEDGVSCIVSPTPEPHLPLSLILSVVTSALVAALVLAFSGIMIVYRRKHQELQAMQMELQSPEYKLSKLRTSTIMTDYNPNYCFAGKTSSISDLKEVPRKNITLIRGLGHGAFGEVYEGQVSGMPNDPSPLQVAVKTLPEVCSEQDELDFLMEALIISKFNHQNIVRCIGVSLQSLPRFILLELMAGGDLKSFLRETRPRPSQPSSLAMLDLLHVARDIACGCQYLEENHFIHRDIAARNCLLTCPGPGRVAKIGDFGMARDIYRASYYRKGGCAMLPVKWMPPEAFMEGIFTSKTDTWSFGVLLWEIFSLGYMPYPSKSNQEVLEFVTSGGRMDPPKNCPGPVYRIMTQCWQHQPEDRPNFAIILERIEYCTQDPDVINTALPIEYGPLVEEEEKVPVRPKDPEGVPPLLVSQQAKREEERSPAAPPPLPTTSSGKAAKKPTAAEISVRVPRGPAVEGGHVNMAFSQSNPPSELHKVHGSRNKPTSLWNPTYGSWFTEKPTKKNNPIAKKEPHDRGNLGLEGSCTVPPNVATGRLPGASLLLEPSSLTANMKEVPLFRLRHFPCGNVNYGYQQQGLPLEAATAPGAGHYEDTILKSKNSMNQPGP

> <PDB ID(s) of Target Chain>
2XB7,2XBA,3AOX,5FTO,5FTQ,6E0R,6EBW,6EDL,6MX8

> <UniProt (SwissProt) Recommended Name of Target Chain>
ALK tyrosine kinase receptor

> <UniProt (SwissProt) Entry Name of Target Chain>
ALK_HUMAN

> <UniProt (SwissProt) Primary ID of Target Chain>
Q9UM73

> <UniProt (SwissProt) Secondary ID(s) of Target Chain>
Q4ZFX9,Q53QQ6,Q53RZ4,Q59FI3,Q9Y4K6

> <UniProt (SwissProt) Alternative ID(s) of Target Chain>


> <UniProt (TrEMBL) Submitted Name of Target Chain>


> <UniProt (TrEMBL) Entry Name of Target Chain>


> <UniProt (TrEMBL) Primary ID of Target Chain>


> <UniProt (TrEMBL) Secondary ID(s) of Target Chain>


> <UniProt (TrEMBL) Alternative ID(s) of Target Chain>


$$$$
00190001.cdx
  Mrv0541 10181809492D          

 35 38  0  0  0  0            999 V2000
   -3.9296    1.9115    0.0000 C   0  0  0  0  0  0  0  0  0  0  0  0
   -3.9296    1.0865    0.0000 C   0  0  0  0  0  0  0  0  0  0  0  0
   -3.2151    0.6740    0.0000 C   0  0  0  0  0  0  0  0  0  0  0  0
   -2.5006    1.0865    0.0000 C   0  0  0  0  0  0  0  0  0  0  0  0
   -2.5006    1.9115    0.0000 C   0  0  0  0  0  0  0  0  0  0  0  0
   -3.2151    2.3240    0.0000 C   0  0  0  0  0  0  0  0  0  0  0  0
   -1.7862    0.6740    0.0000 N   0  0  0  0  0  0  0  0  0  0  0  0
   -1.0717    1.0865    0.0000 C   0  0  0  0  0  0  0  0  0  0  0  0
   -1.0717    1.9115    0.0000 C   0  0  0  0  0  0  0  0  0  0  0  0
   -1.7862    2.3240    0.0000 S   0  0  0  0  0  0  0  0  0  0  0  0
   -1.7862   -0.1510    0.0000 C   0  0  0  0  0  0  0  0  0  0  0  0
   -0.3572    2.3240    0.0000 C   0  0  0  0  0  0  0  0  0  0  0  0
   -1.3737    3.0385    0.0000 O   0  0  0  0  0  0  0  0  0  0  0  0
   -2.3695    2.9074    0.0000 O   0  0  0  0  0  0  0  0  0  0  0  0
   -2.5006   -0.5635    0.0000 C   0  0  0  0  0  0  0  0  0  0  0  0
   -2.5006   -1.3885    0.0000 C   0  0  0  0  0  0  0  0  0  0  0  0
   -1.7862   -1.8010    0.0000 N   0  0  0  0  0  0  0  0  0  0  0  0
   -1.0717   -1.3885    0.0000 C   0  0  0  0  0  0  0  0  0  0  0  0
   -1.0717   -0.5635    0.0000 N   0  0  0  0  0  0  0  0  0  0  0  0
   -3.2151   -0.1510    0.0000 Cl  0  0  0  0  0  0  0  0  0  0  0  0
   -0.3572   -1.8010    0.0000 N   0  0  0  0  0  0  0  0  0  0  0  0
    0.3572   -1.3885    0.0000 C   0  0  0  0  0  0  0  0  0  0  0  0
    1.0717   -1.8010    0.0000 C   0  0  0  0  0  0  0  0  0  0  0  0
    1.7862   -1.3885    0.0000 C   0  0  0  0  0  0  0  0  0  0  0  0
    1.7862   -0.5635    0.0000 C   0  0  0  0  0  0  0  0  0  0  0  0
    1.0717   -0.1510    0.0000 C   0  0  0  0  0  0  0  0  0  0  0  0
    0.3572   -0.5635    0.0000 C   0  0  0  0  0  0  0  0  0  0  0  0
    1.0717   -2.6260    0.0000 O   0  0  0  0  0  0  0  0  0  0  0  0
    1.7862   -3.0385    0.0000 C   0  0  0  0  0  0  0  0  0  0  0  0
    2.5006   -0.1510    0.0000 C   0  0  0  0  0  0  0  0  0  0  0  0
    2.5006    0.6740    0.0000 N   0  0  0  0  0  0  0  0  0  0  0  0
    1.7862    1.0865    0.0000 C   0  0  0  0  0  0  0  0  0  0  0  0
    1.0717    0.6740    0.0000 C   0  0  0  0  0  0  0  0  0  0  0  0
    3.2151    1.0865    0.0000 C   0  0  0  0  0  0  0  0  0  0  0  0
    3.9296    0.6740    0.0000 C   0  0  0  0  0  0  0  0  0  0  0  0
  1  2  4  0  0  0  0
  2  3  4  0  0  0  0
  3  4  4  0  0  0  0
  4  5  4  0  0  0  0
  5  6  4  0  0  0  0
  6  1  4  0  0  0  0
  4  7  1  0  0  0  0
  8  9  1  0  0  0  0
  9 10  1  0  0  0  0
 10  5  1  0  0  0  0
  7 11  1  0  0  0  0
  9 12  1  0  0  0  0
 10 13  2  0  0  0  0
 10 14  2  0  0  0  0
 11 15  4  0  0  0  0
 15 16  4  0  0  0  0
 16 17  4  0  0  0  0
 17 18  4  0  0  0  0
 18 19  4  0  0  0  0
 19 11  4  0  0  0  0
 15 20  1  0  0  0  0
 18 21  1  0  0  0  0
 21 22  1  0  0  0  0
 22 23  4  0  0  0  0
 23 24  4  0  0  0  0
 24 25  4  0  0  0  0
 25 26  4  0  0  0  0
 26 27  4  0  0  0  0
 27 22  4  0  0  0  0
 23 28  1  0  0  0  0
 28 29  1  0  0  0  0
 25 30  1  0  0  0  0
 30 31  1  0  0  0  0
 31 32  1  0  0  0  0
 32 33  1  0  0  0  0
 33 26  1  0  0  0  0
 31 34  1  0  0  0  0
 34 35  1  0  0  0  0
M  END
> <From>
www.bindingDB.org

> <BindingDB Reactant_set_id>
490366

> <Ligand InChI>
InChI=1S/C25H30ClN5O3S/c1-5-31-11-10-17-12-21(22(34-4)13-18(17)15-31)29-25-27-14-19(26)24(30-25)28-20-8-6-7-9-23(20)35(32,33)16(2)3/h6-9,12-14,16H,5,10-11,15H2,1-4H3,(H2,27,28,29,30)

> <Ligand InChI Key>
ZIIGGCHAZOMSOL-UHFFFAOYSA-N

> <BindingDB MonomerID>
243372

> <BindingDB Ligand Name>
5-chloro-N4-(2-(isopropylsulfonyl)phenyl)-N2-(7-methoxy-2-ethyl-1,2,3,4-tetrahydroisoquinolin-6-yl)pyrimidine-2,4-diamine::US10053458, 4

> <Target Name Assigned by Curator or DataSource>
ALK tyrosine kinase receptor

> <Target Source Organism According to Curator or DataSource>
Homo sapiens

> <Ki (nM)>


> <IC50 (nM)>
<10.00

> <Kd (nM)>


> <EC50 (nM)>


> <kon (M-1-s-1)>


> <koff (s-1)>


> <pH>


> <Temp C>
25.00

> <Curation/DataSource>
US Patent

> <Article DOI>


> <PMID>


> <PubChem AID>


> <Patent Number>
US10053458

> <Authors>
Yun, CS; Kim, HR; Cho, SY; Jung, HJ; Lee, K; Chae, CH; Lee, CO; Park, CH; Kim, P; Hwang, JY; Ha, JD; Ahn, SJ

> <Institution>
KOREA RESEARCH INSTITUTE OF CHEMICAL TECHNOLOGY

> <Link to Ligand in BindingDB>
http://www.bindingdb.org/bind/chemsearch/marvin/MolStructure.jsp?monomerid=243372

> <Link to Ligand-Target Pair in BindingDB>
http://www.bindingdb.org/jsp/dbsearch/PrimarySearch_ki.jsp?energyterm=kJ/mole&tag=pol&polymerid=5809&target=ALK+tyrosine+kinase+receptor&column=ki&startPg=0&Increment=50&submit=Search

> <Link to Ligand-Target Pair in BindingDB>
http://www.bindingdb.org/jsp/dbsearch/PrimarySearch_ki.jsp?energyterm=kJ/mole&tag=r21&monomerid=243372&enzyme=ALK+tyrosine+kinase+receptor&column=ki&startPg=0&Increment=50&submit=Search

> <Ligand HET ID in PDB>


> <PDB ID(s) for Ligand-Target Complex>


> <PubChem CID>
129048568

> <PubChem SID>
376221755

> <ChEBI ID of Ligand>


> <ChEMBL ID of Ligand>


> <DrugBank ID of Ligand>


> <IUPHAR_GRAC ID of Ligand>


> <KEGG ID of Ligand>


> <ZINC ID of Ligand>


> <Number of Protein Chains in Target (>1 implies a multichain complex)>
1

> <BindingDB Target Chain Sequence>
MGAIGLLWLLPLLLSTAAVGSGMGTGQRAGSPAAGPPLQPREPLSYSRLQRKSLAVDFVVPSLFRVYARDLLLPPSSSELKAGRPEARGSLALDCAPLLRLLGPAPGVSWTAGSPAPAEARTLSRVLKGGSVRKLRRAKQLVLELGEEAILEGCVGPPGEAAVGLLQFNLSELFSWWIRQGEGRLRIRLMPEKKASEVGREGRLSAAIRASQPRLLFQIFGTGHSSLESPTNMPSPSPDYFTWNLTWIMKDSFPFLSHRSRYGLECSFDFPCELEYSPPLHDLRNQSWSWRRIPSEEASQMDLLDGPGAERSKEMPRGSFLLLNTSADSKHTILSPWMRSSSEHCTLAVSVHRHLQPSGRYIAQLLPHNEAAREILLMPTPGKHGWTVLQGRIGRPDNPFRVALEYISSGNRSLSAVDFFALKNCSEGTSPGSKMALQSSFTCWNGTVLQLGQACDFHQDCAQGEDESQMCRKLPVGFYCNFEDGFCGWTQGTLSPHTPQWQVRTLKDARFQDHQDHALLLSTTDVPASESATVTSATFPAPIKSSPCELRMSWLIRGVLRGNVSLVLVENKTGKEQGRMVWHVAAYEGLSLWQWMVLPLLDVSDRFWLQMVAWWGQGSRAIVAFDNISISLDCYLTISGEDKILQNTAPKSRNLFERNPNKELKPGENSPRQTPIFDPTVHWLFTTCGASGPHGPTQAQCNNAYQNSNLSVEVGSEGPLKGIQIWKVPATDTYSISGYGAAGGKGGKNTMMRSHGVSVLGIFNLEKDDMLYILVGQQGEDACPSTNQLIQKVCIGENNVIEEEIRVNRSVHEWAGGGGGGGGATYVFKMKDGVPVPLIIAAGGGGRAYGAKTDTFHPERLENNSSVLGLNGNSGAAGGGGGWNDNTSLLWAGKSLQEGATGGHSCPQAMKKWGWETRGGFGGGGGGCSSGGGGGGYIGGNAASNNDPEMDGEDGVSFISPLGILYTPALKVMEGHGEVNIKHYLNCSHCEVDECHMDPESHKVICFCDHGTVLAEDGVSCIVSPTPEPHLPLSLILSVVTSALVAALVLAFSGIMIVYRRKHQELQAMQMELQSPEYKLSKLRTSTIMTDYNPNYCFAGKTSSISDLKEVPRKNITLIRGLGHGAFGEVYEGQVSGMPNDPSPLQVAVKTLPEVCSEQDELDFLMEALIISKFNHQNIVRCIGVSLQSLPRFILLELMAGGDLKSFLRETRPRPSQPSSLAMLDLLHVARDIACGCQYLEENHFIHRDIAARNCLLTCPGPGRVAKIGDFGMARDIYRASYYRKGGCAMLPVKWMPPEAFMEGIFTSKTDTWSFGVLLWEIFSLGYMPYPSKSNQEVLEFVTSGGRMDPPKNCPGPVYRIMTQCWQHQPEDRPNFAIILERIEYCTQDPDVINTALPIEYGPLVEEEEKVPVRPKDPEGVPPLLVSQQAKREEERSPAAPPPLPTTSSGKAAKKPTAAEISVRVPRGPAVEGGHVNMAFSQSNPPSELHKVHGSRNKPTSLWNPTYGSWFTEKPTKKNNPIAKKEPHDRGNLGLEGSCTVPPNVATGRLPGASLLLEPSSLTANMKEVPLFRLRHFPCGNVNYGYQQQGLPLEAATAPGAGHYEDTILKSKNSMNQPGP

> <PDB ID(s) of Target Chain>
2XB7,2XBA,3AOX,5FTO,5FTQ,6E0R,6EBW,6EDL,6MX8

> <UniProt (SwissProt) Recommended Name of Target Chain>
ALK tyrosine kinase receptor

> <UniProt (SwissProt) Entry Name of Target Chain>
ALK_HUMAN

> <UniProt (SwissProt) Primary ID of Target Chain>
Q9UM73

> <UniProt (SwissProt) Secondary ID(s) of Target Chain>
Q4ZFX9,Q53QQ6,Q53RZ4,Q59FI3,Q9Y4K6

> <UniProt (SwissProt) Alternative ID(s) of Target Chain>


> <UniProt (TrEMBL) Submitted Name of Target Chain>


> <UniProt (TrEMBL) Entry Name of Target Chain>


> <UniProt (TrEMBL) Primary ID of Target Chain>


> <UniProt (TrEMBL) Secondary ID(s) of Target Chain>


> <UniProt (TrEMBL) Alternative ID(s) of Target Chain>


$$$$
00195001.cdx
  Mrv0541 10181809492D          

 36 39  0  0  0  0            999 V2000
   -4.2868    1.9115    0.0000 C   0  0  0  0  0  0  0  0  0  0  0  0
   -4.2868    1.0865    0.0000 C   0  0  0  0  0  0  0  0  0  0  0  0
   -3.5724    0.6740    0.0000 C   0  0  0  0  0  0  0  0  0  0  0  0
   -2.8579    1.0865    0.0000 C   0  0  0  0  0  0  0  0  0  0  0  0
   -2.8579    1.9115    0.0000 C   0  0  0  0  0  0  0  0  0  0  0  0
   -3.5724    2.3240    0.0000 C   0  0  0  0  0  0  0  0  0  0  0  0
   -2.1434    0.6740    0.0000 N   0  0  0  0  0  0  0  0  0  0  0  0
   -1.4289    1.0865    0.0000 C   0  0  0  0  0  0  0  0  0  0  0  0
   -1.4289    1.9115    0.0000 C   0  0  0  0  0  0  0  0  0  0  0  0
   -2.1434    2.3240    0.0000 S   0  0  0  0  0  0  0  0  0  0  0  0
   -2.1434   -0.1510    0.0000 C   0  0  0  0  0  0  0  0  0  0  0  0
   -0.7145    2.3240    0.0000 C   0  0  0  0  0  0  0  0  0  0  0  0
   -1.7309    3.0385    0.0000 O   0  0  0  0  0  0  0  0  0  0  0  0
   -2.7268    2.9074    0.0000 O   0  0  0  0  0  0  0  0  0  0  0  0
   -2.8579   -0.5635    0.0000 C   0  0  0  0  0  0  0  0  0  0  0  0
   -2.8579   -1.3885    0.0000 C   0  0  0  0  0  0  0  0  0  0  0  0
   -2.1434   -1.8010    0.0000 N   0  0  0  0  0  0  0  0  0  0  0  0
   -1.4289   -1.3885    0.0000 C   0  0  0  0  0  0  0  0  0  0  0  0
   -1.4289   -0.5635    0.0000 N   0  0  0  0  0  0  0  0  0  0  0  0
   -3.5724   -0.1510    0.0000 Cl  0  0  0  0  0  0  0  0  0  0  0  0
   -0.7145   -1.8010    0.0000 N   0  0  0  0  0  0  0  0  0  0  0  0
    0.0000   -1.3885    0.0000 C   0  0  0  0  0  0  0  0  0  0  0  0
    0.7145   -1.8010    0.0000 C   0  0  0  0  0  0  0  0  0  0  0  0
    1.4289   -1.3885    0.0000 C   0  0  0  0  0  0  0  0  0  0  0  0
    1.4289   -0.5635    0.0000 C   0  0  0  0  0  0  0  0  0  0  0  0
    0.7145   -0.1510    0.0000 C   0  0  0  0  0  0  0  0  0  0  0  0
    0.0000   -0.5635    0.0000 C   0  0  0  0  0  0  0  0  0  0  0  0
    0.7145   -2.6260    0.0000 O   0  0  0  0  0  0  0  0  0  0  0  0
    1.4289   -3.0385    0.0000 C   0  0  0  0  0  0  0  0  0  0  0  0
    2.1434   -0.1510    0.0000 C   0  0  0  0  0  0  0  0  0  0  0  0
    2.1434    0.6740    0.0000 N   0  0  0  0  0  0  0  0  0  0  0  0
    1.4289    1.0865    0.0000 C   0  0  0  0  0  0  0  0  0  0  0  0
    0.7145    0.6740    0.0000 C   0  0  0  0  0  0  0  0  0  0  0  0
    2.8579    1.0865    0.0000 C   0  0  0  0  0  0  0  0  0  0  0  0
    3.5724    0.6740    0.0000 C   0  0  0  0  0  0  0  0  0  0  0  0
    4.2868    1.0865    0.0000 O   0  0  0  0  0  0  0  0  0  0  0  0
  1  2  4  0  0  0  0
  2  3  4  0  0  0  0
  3  4  4  0  0  0  0
  4  5  4  0  0  0  0
  5  6  4  0  0  0  0
  6  1  4  0  0  0  0
  4  7  1  0  0  0  0
  8  9  1  0  0  0  0
  9 10  1  0  0  0  0
 10  5  1  0  0  0  0
  7 11  1  0  0  0  0
  9 12  1  0  0  0  0
 10 13  2  0  0  0  0
 10 14  2  0  0  0  0
 11 15  4  0  0  0  0
 15 16  4  0  0  0  0
 16 17  4  0  0  0  0
 17 18  4  0  0  0  0
 18 19  4  0  0  0  0
 19 11  4  0  0  0  0
 15 20  1  0  0  0  0
 18 21  1  0  0  0  0
 21 22  1  0  0  0  0
 22 23  4  0  0  0  0
 23 24  4  0  0  0  0
 24 25  4  0  0  0  0
 25 26  4  0  0  0  0
 26 27  4  0  0  0  0
 27 22  4  0  0  0  0
 23 28  1  0  0  0  0
 28 29  1  0  0  0  0
 25 30  1  0  0  0  0
 30 31  1  0  0  0  0
 31 32  1  0  0  0  0
 32 33  1  0  0  0  0
 33 26  1  0  0  0  0
 31 34  1  0  0  0  0
 34 35  1  0  0  0  0
 35 36  1  0  0  0  0
M  END
> <From>
www.bindingDB.org

> <BindingDB Reactant_set_id>
490368

> <Ligand InChI>
InChI=1S/C25H30ClN5O4S/c1-16(2)36(33,34)23-7-5-4-6-20(23)28-24-19(26)14-27-25(30-24)29-21-12-17-8-9-31(10-11-32)15-18(17)13-22(21)35-3/h4-7,12-14,16,32H,8-11,15H2,1-3H3,(H2,27,28,29,30)

> <Ligand InChI Key>
KLUMLMPIENTQJN-UHFFFAOYSA-N

> <BindingDB MonomerID>
243373

> <BindingDB Ligand Name>
5-chloro-N4-(2-(isopropylsulfonyl)phenyl)-N2-(7-methoxy-2-hydroxyethyl-1,2,3,4-tetrahydroisoquinolin-6-yl)pyrimidine-2,4-diamine::US10053458, 5

> <Target Name Assigned by Curator or DataSource>
ALK tyrosine kinase receptor

> <Target Source Organism According to Curator or DataSource>
Homo sapiens

> <Ki (nM)>


> <IC50 (nM)>
 1.000

> <Kd (nM)>


> <EC50 (nM)>


> <kon (M-1-s-1)>


> <koff (s-1)>


> <pH>


> <Temp C>
25.00

> <Curation/DataSource>
US Patent

> <Article DOI>


> <PMID>


> <PubChem AID>


> <Patent Number>
US10053458

> <Authors>
Yun, CS; Kim, HR; Cho, SY; Jung, HJ; Lee, K; Chae, CH; Lee, CO; Park, CH; Kim, P; Hwang, JY; Ha, JD; Ahn, SJ

> <Institution>
KOREA RESEARCH INSTITUTE OF CHEMICAL TECHNOLOGY

> <Link to Ligand in BindingDB>
http://www.bindingdb.org/bind/chemsearch/marvin/MolStructure.jsp?monomerid=243373

> <Link to Ligand-Target Pair in BindingDB>
http://www.bindingdb.org/jsp/dbsearch/PrimarySearch_ki.jsp?energyterm=kJ/mole&tag=pol&polymerid=5809&target=ALK+tyrosine+kinase+receptor&column=ki&startPg=0&Increment=50&submit=Search

> <Link to Ligand-Target Pair in BindingDB>
http://www.bindingdb.org/jsp/dbsearch/PrimarySearch_ki.jsp?energyterm=kJ/mole&tag=r21&monomerid=243373&enzyme=ALK+tyrosine+kinase+receptor&column=ki&startPg=0&Increment=50&submit=Search

> <Ligand HET ID in PDB>


> <PDB ID(s) for Ligand-Target Complex>


> <PubChem CID>
129048500

> <PubChem SID>
376221756

> <ChEBI ID of Ligand>


> <ChEMBL ID of Ligand>


> <DrugBank ID of Ligand>


> <IUPHAR_GRAC ID of Ligand>


> <KEGG ID of Ligand>


> <ZINC ID of Ligand>


> <Number of Protein Chains in Target (>1 implies a multichain complex)>
1

> <BindingDB Target Chain Sequence>
MGAIGLLWLLPLLLSTAAVGSGMGTGQRAGSPAAGPPLQPREPLSYSRLQRKSLAVDFVVPSLFRVYARDLLLPPSSSELKAGRPEARGSLALDCAPLLRLLGPAPGVSWTAGSPAPAEARTLSRVLKGGSVRKLRRAKQLVLELGEEAILEGCVGPPGEAAVGLLQFNLSELFSWWIRQGEGRLRIRLMPEKKASEVGREGRLSAAIRASQPRLLFQIFGTGHSSLESPTNMPSPSPDYFTWNLTWIMKDSFPFLSHRSRYGLECSFDFPCELEYSPPLHDLRNQSWSWRRIPSEEASQMDLLDGPGAERSKEMPRGSFLLLNTSADSKHTILSPWMRSSSEHCTLAVSVHRHLQPSGRYIAQLLPHNEAAREILLMPTPGKHGWTVLQGRIGRPDNPFRVALEYISSGNRSLSAVDFFALKNCSEGTSPGSKMALQSSFTCWNGTVLQLGQACDFHQDCAQGEDESQMCRKLPVGFYCNFEDGFCGWTQGTLSPHTPQWQVRTLKDARFQDHQDHALLLSTTDVPASESATVTSATFPAPIKSSPCELRMSWLIRGVLRGNVSLVLVENKTGKEQGRMVWHVAAYEGLSLWQWMVLPLLDVSDRFWLQMVAWWGQGSRAIVAFDNISISLDCYLTISGEDKILQNTAPKSRNLFERNPNKELKPGENSPRQTPIFDPTVHWLFTTCGASGPHGPTQAQCNNAYQNSNLSVEVGSEGPLKGIQIWKVPATDTYSISGYGAAGGKGGKNTMMRSHGVSVLGIFNLEKDDMLYILVGQQGEDACPSTNQLIQKVCIGENNVIEEEIRVNRSVHEWAGGGGGGGGATYVFKMKDGVPVPLIIAAGGGGRAYGAKTDTFHPERLENNSSVLGLNGNSGAAGGGGGWNDNTSLLWAGKSLQEGATGGHSCPQAMKKWGWETRGGFGGGGGGCSSGGGGGGYIGGNAASNNDPEMDGEDGVSFISPLGILYTPALKVMEGHGEVNIKHYLNCSHCEVDECHMDPESHKVICFCDHGTVLAEDGVSCIVSPTPEPHLPLSLILSVVTSALVAALVLAFSGIMIVYRRKHQELQAMQMELQSPEYKLSKLRTSTIMTDYNPNYCFAGKTSSISDLKEVPRKNITLIRGLGHGAFGEVYEGQVSGMPNDPSPLQVAVKTLPEVCSEQDELDFLMEALIISKFNHQNIVRCIGVSLQSLPRFILLELMAGGDLKSFLRETRPRPSQPSSLAMLDLLHVARDIACGCQYLEENHFIHRDIAARNCLLTCPGPGRVAKIGDFGMARDIYRASYYRKGGCAMLPVKWMPPEAFMEGIFTSKTDTWSFGVLLWEIFSLGYMPYPSKSNQEVLEFVTSGGRMDPPKNCPGPVYRIMTQCWQHQPEDRPNFAIILERIEYCTQDPDVINTALPIEYGPLVEEEEKVPVRPKDPEGVPPLLVSQQAKREEERSPAAPPPLPTTSSGKAAKKPTAAEISVRVPRGPAVEGGHVNMAFSQSNPPSELHKVHGSRNKPTSLWNPTYGSWFTEKPTKKNNPIAKKEPHDRGNLGLEGSCTVPPNVATGRLPGASLLLEPSSLTANMKEVPLFRLRHFPCGNVNYGYQQQGLPLEAATAPGAGHYEDTILKSKNSMNQPGP

> <PDB ID(s) of Target Chain>
2XB7,2XBA,3AOX,5FTO,5FTQ,6E0R,6EBW,6EDL,6MX8

> <UniProt (SwissProt) Recommended Name of Target Chain>
ALK tyrosine kinase receptor

> <UniProt (SwissProt) Entry Name of Target Chain>
ALK_HUMAN

> <UniProt (SwissProt) Primary ID of Target Chain>
Q9UM73

> <UniProt (SwissProt) Secondary ID(s) of Target Chain>
Q4ZFX9,Q53QQ6,Q53RZ4,Q59FI3,Q9Y4K6

> <UniProt (SwissProt) Alternative ID(s) of Target Chain>


> <UniProt (TrEMBL) Submitted Name of Target Chain>


> <UniProt (TrEMBL) Entry Name of Target Chain>


> <UniProt (TrEMBL) Primary ID of Target Chain>


> <UniProt (TrEMBL) Secondary ID(s) of Target Chain>


> <UniProt (TrEMBL) Alternative ID(s) of Target Chain>


$$$$
00196001.cdx
  Mrv0541 10181809492D          

 36 39  0  0  0  0            999 V2000
   -3.9296    1.9115    0.0000 C   0  0  0  0  0  0  0  0  0  0  0  0
   -3.9296    1.0865    0.0000 C   0  0  0  0  0  0  0  0  0  0  0  0
   -3.2151    0.6740    0.0000 C   0  0  0  0  0  0  0  0  0  0  0  0
   -2.5006    1.0865    0.0000 C   0  0  0  0  0  0  0  0  0  0  0  0
   -2.5006    1.9115    0.0000 C   0  0  0  0  0  0  0  0  0  0  0  0
   -3.2151    2.3240    0.0000 C   0  0  0  0  0  0  0  0  0  0  0  0
   -1.7862    0.6740    0.0000 N   0  0  0  0  0  0  0  0  0  0  0  0
   -1.0717    1.0865    0.0000 C   0  0  0  0  0  0  0  0  0  0  0  0
   -1.0717    1.9115    0.0000 C   0  0  0  0  0  0  0  0  0  0  0  0
   -1.7862    2.3240    0.0000 S   0  0  0  0  0  0  0  0  0  0  0  0
   -1.7862   -0.1510    0.0000 C   0  0  0  0  0  0  0  0  0  0  0  0
   -0.3572    2.3240    0.0000 C   0  0  0  0  0  0  0  0  0  0  0  0
   -1.3737    3.0385    0.0000 O   0  0  0  0  0  0  0  0  0  0  0  0
   -2.3695    2.9074    0.0000 O   0  0  0  0  0  0  0  0  0  0  0  0
   -2.5006   -0.5635    0.0000 C   0  0  0  0  0  0  0  0  0  0  0  0
   -2.5006   -1.3885    0.0000 C   0  0  0  0  0  0  0  0  0  0  0  0
   -1.7862   -1.8010    0.0000 N   0  0  0  0  0  0  0  0  0  0  0  0
   -1.0717   -1.3885    0.0000 C   0  0  0  0  0  0  0  0  0  0  0  0
   -1.0717   -0.5635    0.0000 N   0  0  0  0  0  0  0  0  0  0  0  0
   -3.2151   -0.1510    0.0000 Cl  0  0  0  0  0  0  0  0  0  0  0  0
   -0.3572   -1.8010    0.0000 N   0  0  0  0  0  0  0  0  0  0  0  0
    0.3572   -1.3885    0.0000 C   0  0  0  0  0  0  0  0  0  0  0  0
    1.0717   -1.8010    0.0000 C   0  0  0  0  0  0  0  0  0  0  0  0
    1.7862   -1.3885    0.0000 C   0  0  0  0  0  0  0  0  0  0  0  0
    1.7862   -0.5635    0.0000 C   0  0  0  0  0  0  0  0  0  0  0  0
    1.0717   -0.1510    0.0000 C   0  0  0  0  0  0  0  0  0  0  0  0
    0.3572   -0.5635    0.0000 C   0  0  0  0  0  0  0  0  0  0  0  0
    1.0717   -2.6260    0.0000 O   0  0  0  0  0  0  0  0  0  0  0  0
    1.7862   -3.0385    0.0000 C   0  0  0  0  0  0  0  0  0  0  0  0
    2.5006   -0.1510    0.0000 C   0  0  0  0  0  0  0  0  0  0  0  0
    2.5006    0.6740    0.0000 N   0  0  0  0  0  0  0  0  0  0  0  0
    1.7862    1.0865    0.0000 C   0  0  0  0  0  0  0  0  0  0  0  0
    1.0717    0.6740    0.0000 C   0  0  0  0  0  0  0  0  0  0  0  0
    3.2151    1.0865    0.0000 C   0  0  0  0  0  0  0  0  0  0  0  0
    3.9296    0.6740    0.0000 C   0  0  0  0  0  0  0  0  0  0  0  0
    3.2151    1.9115    0.0000 O   0  0  0  0  0  0  0  0  0  0  0  0
  1  2  4  0  0  0  0
  2  3  4  0  0  0  0
  3  4  4  0  0  0  0
  4  5  4  0  0  0  0
  5  6  4  0  0  0  0
  6  1  4  0  0  0  0
  4  7  1  0  0  0  0
  8  9  1  0  0  0  0
  9 10  1  0  0  0  0
 10  5  1  0  0  0  0
  7 11  1  0  0  0  0
  9 12  1  0  0  0  0
 10 13  2  0  0  0  0
 10 14  2  0  0  0  0
 11 15  4  0  0  0  0
 15 16  4  0  0  0  0
 16 17  4  0  0  0  0
 17 18  4  0  0  0  0
 18 19  4  0  0  0  0
 19 11  4  0  0  0  0
 15 20  1  0  0  0  0
 18 21  1  0  0  0  0
 21 22  1  0  0  0  0
 22 23  4  0  0  0  0
 23 24  4  0  0  0  0
 24 25  4  0  0  0  0
 25 26  4  0  0  0  0
 26 27  4  0  0  0  0
 27 22  4  0  0  0  0
 23 28  1  0  0  0  0
 28 29  1  0  0  0  0
 25 30  1  0  0  0  0
 30 31  1  0  0  0  0
 31 32  1  0  0  0  0
 32 33  1  0  0  0  0
 33 26  1  0  0  0  0
 31 34  1  0  0  0  0
 34 35  1  0  0  0  0
 34 36  2  0  0  0  0
M  END
> <From>
www.bindingDB.org

> <BindingDB Reactant_set_id>
490370

> <Ligand InChI>
InChI=1S/C25H28ClN5O4S/c1-15(2)36(33,34)23-8-6-5-7-20(23)28-24-19(26)13-27-25(30-24)29-21-11-17-9-10-31(16(3)32)14-18(17)12-22(21)35-4/h5-8,11-13,15H,9-10,14H2,1-4H3,(H2,27,28,29,30)

> <Ligand InChI Key>
COQMOZVJUSSUKM-UHFFFAOYSA-N

> <BindingDB MonomerID>
243374

> <BindingDB Ligand Name>
5-chloro-N4-(2-(isopropylsulfonyl)phenyl)-N2-(7-methoxy-2-acetyl-1,2,3,4-tetrahydroisoquinolin-6-yl)pyrimidine-2,4-diamine::US10053458, 6

> <Target Name Assigned by Curator or DataSource>
ALK tyrosine kinase receptor

> <Target Source Organism According to Curator or DataSource>
Homo sapiens

> <Ki (nM)>


> <IC50 (nM)>
<10.00

> <Kd (nM)>


> <EC50 (nM)>


> <kon (M-1-s-1)>


> <koff (s-1)>


> <pH>


> <Temp C>
25.00

> <Curation/DataSource>
US Patent

> <Article DOI>


> <PMID>


> <PubChem AID>


> <Patent Number>
US10053458

> <Authors>
Yun, CS; Kim, HR; Cho, SY; Jung, HJ; Lee, K; Chae, CH; Lee, CO; Park, CH; Kim, P; Hwang, JY; Ha, JD; Ahn, SJ

> <Institution>
KOREA RESEARCH INSTITUTE OF CHEMICAL TECHNOLOGY

> <Link to Ligand in BindingDB>
http://www.bindingdb.org/bind/chemsearch/marvin/MolStructure.jsp?monomerid=243374

> <Link to Ligand-Target Pair in BindingDB>
http://www.bindingdb.org/jsp/dbsearch/PrimarySearch_ki.jsp?energyterm=kJ/mole&tag=pol&polymerid=5809&target=ALK+tyrosine+kinase+receptor&column=ki&startPg=0&Increment=50&submit=Search

> <Link to Ligand-Target Pair in BindingDB>
http://www.bindingdb.org/jsp/dbsearch/PrimarySearch_ki.jsp?energyterm=kJ/mole&tag=r21&monomerid=243374&enzyme=ALK+tyrosine+kinase+receptor&column=ki&startPg=0&Increment=50&submit=Search

> <Ligand HET ID in PDB>


> <PDB ID(s) for Ligand-Target Complex>


> <PubChem CID>
129048561

> <PubChem SID>
376221757

> <ChEBI ID of Ligand>


> <ChEMBL ID of Ligand>


> <DrugBank ID of Ligand>


> <IUPHAR_GRAC ID of Ligand>


> <KEGG ID of Ligand>


> <ZINC ID of Ligand>


> <Number of Protein Chains in Target (>1 implies a multichain complex)>
1

> <BindingDB Target Chain Sequence>
MGAIGLLWLLPLLLSTAAVGSGMGTGQRAGSPAAGPPLQPREPLSYSRLQRKSLAVDFVVPSLFRVYARDLLLPPSSSELKAGRPEARGSLALDCAPLLRLLGPAPGVSWTAGSPAPAEARTLSRVLKGGSVRKLRRAKQLVLELGEEAILEGCVGPPGEAAVGLLQFNLSELFSWWIRQGEGRLRIRLMPEKKASEVGREGRLSAAIRASQPRLLFQIFGTGHSSLESPTNMPSPSPDYFTWNLTWIMKDSFPFLSHRSRYGLECSFDFPCELEYSPPLHDLRNQSWSWRRIPSEEASQMDLLDGPGAERSKEMPRGSFLLLNTSADSKHTILSPWMRSSSEHCTLAVSVHRHLQPSGRYIAQLLPHNEAAREILLMPTPGKHGWTVLQGRIGRPDNPFRVALEYISSGNRSLSAVDFFALKNCSEGTSPGSKMALQSSFTCWNGTVLQLGQACDFHQDCAQGEDESQMCRKLPVGFYCNFEDGFCGWTQGTLSPHTPQWQVRTLKDARFQDHQDHALLLSTTDVPASESATVTSATFPAPIKSSPCELRMSWLIRGVLRGNVSLVLVENKTGKEQGRMVWHVAAYEGLSLWQWMVLPLLDVSDRFWLQMVAWWGQGSRAIVAFDNISISLDCYLTISGEDKILQNTAPKSRNLFERNPNKELKPGENSPRQTPIFDPTVHWLFTTCGASGPHGPTQAQCNNAYQNSNLSVEVGSEGPLKGIQIWKVPATDTYSISGYGAAGGKGGKNTMMRSHGVSVLGIFNLEKDDMLYILVGQQGEDACPSTNQLIQKVCIGENNVIEEEIRVNRSVHEWAGGGGGGGGATYVFKMKDGVPVPLIIAAGGGGRAYGAKTDTFHPERLENNSSVLGLNGNSGAAGGGGGWNDNTSLLWAGKSLQEGATGGHSCPQAMKKWGWETRGGFGGGGGGCSSGGGGGGYIGGNAASNNDPEMDGEDGVSFISPLGILYTPALKVMEGHGEVNIKHYLNCSHCEVDECHMDPESHKVICFCDHGTVLAEDGVSCIVSPTPEPHLPLSLILSVVTSALVAALVLAFSGIMIVYRRKHQELQAMQMELQSPEYKLSKLRTSTIMTDYNPNYCFAGKTSSISDLKEVPRKNITLIRGLGHGAFGEVYEGQVSGMPNDPSPLQVAVKTLPEVCSEQDELDFLMEALIISKFNHQNIVRCIGVSLQSLPRFILLELMAGGDLKSFLRETRPRPSQPSSLAMLDLLHVARDIACGCQYLEENHFIHRDIAARNCLLTCPGPGRVAKIGDFGMARDIYRASYYRKGGCAMLPVKWMPPEAFMEGIFTSKTDTWSFGVLLWEIFSLGYMPYPSKSNQEVLEFVTSGGRMDPPKNCPGPVYRIMTQCWQHQPEDRPNFAIILERIEYCTQDPDVINTALPIEYGPLVEEEEKVPVRPKDPEGVPPLLVSQQAKREEERSPAAPPPLPTTSSGKAAKKPTAAEISVRVPRGPAVEGGHVNMAFSQSNPPSELHKVHGSRNKPTSLWNPTYGSWFTEKPTKKNNPIAKKEPHDRGNLGLEGSCTVPPNVATGRLPGASLLLEPSSLTANMKEVPLFRLRHFPCGNVNYGYQQQGLPLEAATAPGAGHYEDTILKSKNSMNQPGP

> <PDB ID(s) of Target Chain>
2XB7,2XBA,3AOX,5FTO,5FTQ,6E0R,6EBW,6EDL,6MX8

> <UniProt (SwissProt) Recommended Name of Target Chain>
ALK tyrosine kinase receptor

> <UniProt (SwissProt) Entry Name of Target Chain>
ALK_HUMAN

> <UniProt (SwissProt) Primary ID of Target Chain>
Q9UM73

> <UniProt (SwissProt) Secondary ID(s) of Target Chain>
Q4ZFX9,Q53QQ6,Q53RZ4,Q59FI3,Q9Y4K6

> <UniProt (SwissProt) Alternative ID(s) of Target Chain>


> <UniProt (TrEMBL) Submitted Name of Target Chain>


> <UniProt (TrEMBL) Entry Name of Target Chain>


> <UniProt (TrEMBL) Primary ID of Target Chain>


> <UniProt (TrEMBL) Secondary ID(s) of Target Chain>


> <UniProt (TrEMBL) Alternative ID(s) of Target Chain>


$$$$
00197001.cdx
  Mrv0541 10181809492D          

 38 41  0  0  0  0            999 V2000
   -4.6441    1.9115    0.0000 C   0  0  0  0  0  0  0  0  0  0  0  0
   -4.6441    1.0865    0.0000 C   0  0  0  0  0  0  0  0  0  0  0  0
   -3.9296    0.6740    0.0000 C   0  0  0  0  0  0  0  0  0  0  0  0
   -3.2151    1.0865    0.0000 C   0  0  0  0  0  0  0  0  0  0  0  0
   -3.2151    1.9115    0.0000 C   0  0  0  0  0  0  0  0  0  0  0  0
   -3.9296    2.3240    0.0000 C   0  0  0  0  0  0  0  0  0  0  0  0
   -2.5006    0.6740    0.0000 N   0  0  0  0  0  0  0  0  0  0  0  0
   -1.7862    1.0865    0.0000 C   0  0  0  0  0  0  0  0  0  0  0  0
   -1.7862    1.9115    0.0000 C   0  0  0  0  0  0  0  0  0  0  0  0
   -2.5006    2.3240    0.0000 S   0  0  0  0  0  0  0  0  0  0  0  0
   -2.5006   -0.1510    0.0000 C   0  0  0  0  0  0  0  0  0  0  0  0
   -1.0717    2.3240    0.0000 C   0  0  0  0  0  0  0  0  0  0  0  0
   -2.0881    3.0385    0.0000 O   0  0  0  0  0  0  0  0  0  0  0  0
   -3.0840    2.9074    0.0000 O   0  0  0  0  0  0  0  0  0  0  0  0
   -3.2151   -0.5635    0.0000 C   0  0  0  0  0  0  0  0  0  0  0  0
   -3.2151   -1.3885    0.0000 C   0  0  0  0  0  0  0  0  0  0  0  0
   -2.5006   -1.8010    0.0000 N   0  0  0  0  0  0  0  0  0  0  0  0
   -1.7862   -1.3885    0.0000 C   0  0  0  0  0  0  0  0  0  0  0  0
   -1.7862   -0.5635    0.0000 N   0  0  0  0  0  0  0  0  0  0  0  0
   -3.9296   -0.1510    0.0000 Cl  0  0  0  0  0  0  0  0  0  0  0  0
   -1.0717   -1.8010    0.0000 N   0  0  0  0  0  0  0  0  0  0  0  0
   -0.3572   -1.3885    0.0000 C   0  0  0  0  0  0  0  0  0  0  0  0
    0.3572   -1.8010    0.0000 C   0  0  0  0  0  0  0  0  0  0  0  0
    1.0717   -1.3885    0.0000 C   0  0  0  0  0  0  0  0  0  0  0  0
    1.0717   -0.5635    0.0000 C   0  0  0  0  0  0  0  0  0  0  0  0
    0.3572   -0.1510    0.0000 C   0  0  0  0  0  0  0  0  0  0  0  0
   -0.3572   -0.5635    0.0000 C   0  0  0  0  0  0  0  0  0  0  0  0
    0.3572   -2.6260    0.0000 O   0  0  0  0  0  0  0  0  0  0  0  0
    1.0717   -3.0385    0.0000 C   0  0  0  0  0  0  0  0  0  0  0  0
    1.7862   -0.1510    0.0000 C   0  0  0  0  0  0  0  0  0  0  0  0
    1.7862    0.6740    0.0000 N   0  0  0  0  0  0  0  0  0  0  0  0
    1.0717    1.0865    0.0000 C   0  0  0  0  0  0  0  0  0  0  0  0
    0.3572    0.6740    0.0000 C   0  0  0  0  0  0  0  0  0  0  0  0
    2.5006    1.0865    0.0000 C   0  0  0  0  0  0  0  0  0  0  0  0
    3.2151    0.6740    0.0000 N   0  0  0  0  0  0  0  0  0  0  0  0
    2.5006    1.9115    0.0000 O   0  0  0  0  0  0  0  0  0  0  0  0
    3.9296    1.0865    0.0000 C   0  0  0  0  0  0  0  0  0  0  0  0
    4.6441    0.6740    0.0000 C   0  0  0  0  0  0  0  0  0  0  0  0
  1  2  4  0  0  0  0
  2  3  4  0  0  0  0
  3  4  4  0  0  0  0
  4  5  4  0  0  0  0
  5  6  4  0  0  0  0
  6  1  4  0  0  0  0
  4  7  1  0  0  0  0
  8  9  1  0  0  0  0
  9 10  1  0  0  0  0
 10  5  1  0  0  0  0
  7 11  1  0  0  0  0
  9 12  1  0  0  0  0
 10 13  2  0  0  0  0
 10 14  2  0  0  0  0
 11 15  4  0  0  0  0
 15 16  4  0  0  0  0
 16 17  4  0  0  0  0
 17 18  4  0  0  0  0
 18 19  4  0  0  0  0
 19 11  4  0  0  0  0
 15 20  1  0  0  0  0
 18 21  1  0  0  0  0
 21 22  1  0  0  0  0
 22 23  4  0  0  0  0
 23 24  4  0  0  0  0
 24 25  4  0  0  0  0
 25 26  4  0  0  0  0
 26 27  4  0  0  0  0
 27 22  4  0  0  0  0
 23 28  1  0  0  0  0
 28 29  1  0  0  0  0
 25 30  1  0  0  0  0
 30 31  1  0  0  0  0
 31 32  1  0  0  0  0
 32 33  1  0  0  0  0
 33 26  1  0  0  0  0
 31 34  1  0  0  0  0
 34 35  1  0  0  0  0
 34 36  2  0  0  0  0
 35 37  1  0  0  0  0
 37 38  1  0  0  0  0
M  END
> <From>
www.bindingDB.org

> <BindingDB Reactant_set_id>
490372

> <Ligand InChI>
InChI=1S/C26H31ClN6O4S/c1-5-28-26(34)33-11-10-17-12-21(22(37-4)13-18(17)15-33)31-25-29-14-19(27)24(32-25)30-20-8-6-7-9-23(20)38(35,36)16(2)3/h6-9,12-14,16H,5,10-11,15H2,1-4H3,(H,28,34)(H2,29,30,31,32)

> <Ligand InChI Key>
BKHPDBWZFWUODJ-UHFFFAOYSA-N

> <BindingDB MonomerID>
243375

> <BindingDB Ligand Name>
6-(5-chloro-4-(2-(isopropylsulfonyl)phenylamino)pyrimidin-2-yl)amino-N-ethyl-7-methoxy-3,4-dihydroisoquinoline-2(1H)-carboxamide::US10053458, 7

> <Target Name Assigned by Curator or DataSource>
ALK tyrosine kinase receptor

> <Target Source Organism According to Curator or DataSource>
Homo sapiens

> <Ki (nM)>


> <IC50 (nM)>
<10.00

> <Kd (nM)>


> <EC50 (nM)>


> <kon (M-1-s-1)>


> <koff (s-1)>


> <pH>


> <Temp C>
25.00

> <Curation/DataSource>
US Patent

> <Article DOI>


> <PMID>


> <PubChem AID>


> <Patent Number>
US10053458

> <Authors>
Yun, CS; Kim, HR; Cho, SY; Jung, HJ; Lee, K; Chae, CH; Lee, CO; Park, CH; Kim, P; Hwang, JY; Ha, JD; Ahn, SJ

> <Institution>
KOREA RESEARCH INSTITUTE OF CHEMICAL TECHNOLOGY

> <Link to Ligand in BindingDB>
http://www.bindingdb.org/bind/chemsearch/marvin/MolStructure.jsp?monomerid=243375

> <Link to Ligand-Target Pair in BindingDB>
http://www.bindingdb.org/jsp/dbsearch/PrimarySearch_ki.jsp?energyterm=kJ/mole&tag=pol&polymerid=5809&target=ALK+tyrosine+kinase+receptor&column=ki&startPg=0&Increment=50&submit=Search

> <Link to Ligand-Target Pair in BindingDB>
http://www.bindingdb.org/jsp/dbsearch/PrimarySearch_ki.jsp?energyterm=kJ/mole&tag=r21&monomerid=243375&enzyme=ALK+tyrosine+kinase+receptor&column=ki&startPg=0&Increment=50&submit=Search

> <Ligand HET ID in PDB>


> <PDB ID(s) for Ligand-Target Complex>


> <PubChem CID>
129048547

> <PubChem SID>
376221758

> <ChEBI ID of Ligand>


> <ChEMBL ID of Ligand>


> <DrugBank ID of Ligand>


> <IUPHAR_GRAC ID of Ligand>


> <KEGG ID of Ligand>


> <ZINC ID of Ligand>


> <Number of Protein Chains in Target (>1 implies a multichain complex)>
1

> <BindingDB Target Chain Sequence>
MGAIGLLWLLPLLLSTAAVGSGMGTGQRAGSPAAGPPLQPREPLSYSRLQRKSLAVDFVVPSLFRVYARDLLLPPSSSELKAGRPEARGSLALDCAPLLRLLGPAPGVSWTAGSPAPAEARTLSRVLKGGSVRKLRRAKQLVLELGEEAILEGCVGPPGEAAVGLLQFNLSELFSWWIRQGEGRLRIRLMPEKKASEVGREGRLSAAIRASQPRLLFQIFGTGHSSLESPTNMPSPSPDYFTWNLTWIMKDSFPFLSHRSRYGLECSFDFPCELEYSPPLHDLRNQSWSWRRIPSEEASQMDLLDGPGAERSKEMPRGSFLLLNTSADSKHTILSPWMRSSSEHCTLAVSVHRHLQPSGRYIAQLLPHNEAAREILLMPTPGKHGWTVLQGRIGRPDNPFRVALEYISSGNRSLSAVDFFALKNCSEGTSPGSKMALQSSFTCWNGTVLQLGQACDFHQDCAQGEDESQMCRKLPVGFYCNFEDGFCGWTQGTLSPHTPQWQVRTLKDARFQDHQDHALLLSTTDVPASESATVTSATFPAPIKSSPCELRMSWLIRGVLRGNVSLVLVENKTGKEQGRMVWHVAAYEGLSLWQWMVLPLLDVSDRFWLQMVAWWGQGSRAIVAFDNISISLDCYLTISGEDKILQNTAPKSRNLFERNPNKELKPGENSPRQTPIFDPTVHWLFTTCGASGPHGPTQAQCNNAYQNSNLSVEVGSEGPLKGIQIWKVPATDTYSISGYGAAGGKGGKNTMMRSHGVSVLGIFNLEKDDMLYILVGQQGEDACPSTNQLIQKVCIGENNVIEEEIRVNRSVHEWAGGGGGGGGATYVFKMKDGVPVPLIIAAGGGGRAYGAKTDTFHPERLENNSSVLGLNGNSGAAGGGGGWNDNTSLLWAGKSLQEGATGGHSCPQAMKKWGWETRGGFGGGGGGCSSGGGGGGYIGGNAASNNDPEMDGEDGVSFISPLGILYTPALKVMEGHGEVNIKHYLNCSHCEVDECHMDPESHKVICFCDHGTVLAEDGVSCIVSPTPEPHLPLSLILSVVTSALVAALVLAFSGIMIVYRRKHQELQAMQMELQSPEYKLSKLRTSTIMTDYNPNYCFAGKTSSISDLKEVPRKNITLIRGLGHGAFGEVYEGQVSGMPNDPSPLQVAVKTLPEVCSEQDELDFLMEALIISKFNHQNIVRCIGVSLQSLPRFILLELMAGGDLKSFLRETRPRPSQPSSLAMLDLLHVARDIACGCQYLEENHFIHRDIAARNCLLTCPGPGRVAKIGDFGMARDIYRASYYRKGGCAMLPVKWMPPEAFMEGIFTSKTDTWSFGVLLWEIFSLGYMPYPSKSNQEVLEFVTSGGRMDPPKNCPGPVYRIMTQCWQHQPEDRPNFAIILERIEYCTQDPDVINTALPIEYGPLVEEEEKVPVRPKDPEGVPPLLVSQQAKREEERSPAAPPPLPTTSSGKAAKKPTAAEISVRVPRGPAVEGGHVNMAFSQSNPPSELHKVHGSRNKPTSLWNPTYGSWFTEKPTKKNNPIAKKEPHDRGNLGLEGSCTVPPNVATGRLPGASLLLEPSSLTANMKEVPLFRLRHFPCGNVNYGYQQQGLPLEAATAPGAGHYEDTILKSKNSMNQPGP

> <PDB ID(s) of Target Chain>
2XB7,2XBA,3AOX,5FTO,5FTQ,6E0R,6EBW,6EDL,6MX8

> <UniProt (SwissProt) Recommended Name of Target Chain>
ALK tyrosine kinase receptor

> <UniProt (SwissProt) Entry Name of Target Chain>
ALK_HUMAN

> <UniProt (SwissProt) Primary ID of Target Chain>
Q9UM73

> <UniProt (SwissProt) Secondary ID(s) of Target Chain>
Q4ZFX9,Q53QQ6,Q53RZ4,Q59FI3,Q9Y4K6

> <UniProt (SwissProt) Alternative ID(s) of Target Chain>


> <UniProt (TrEMBL) Submitted Name of Target Chain>


> <UniProt (TrEMBL) Entry Name of Target Chain>


> <UniProt (TrEMBL) Primary ID of Target Chain>


> <UniProt (TrEMBL) Secondary ID(s) of Target Chain>


> <UniProt (TrEMBL) Alternative ID(s) of Target Chain>


$$$$
00198001.cdx
  Mrv0541 10181809492D          

 37 40  0  0  0  0            999 V2000
   -4.2868    1.9115    0.0000 C   0  0  0  0  0  0  0  0  0  0  0  0
   -4.2868    1.0865    0.0000 C   0  0  0  0  0  0  0  0  0  0  0  0
   -3.5724    0.6740    0.0000 C   0  0  0  0  0  0  0  0  0  0  0  0
   -2.8579    1.0865    0.0000 C   0  0  0  0  0  0  0  0  0  0  0  0
   -2.8579    1.9115    0.0000 C   0  0  0  0  0  0  0  0  0  0  0  0
   -3.5724    2.3240    0.0000 C   0  0  0  0  0  0  0  0  0  0  0  0
   -2.1434    0.6740    0.0000 N   0  0  0  0  0  0  0  0  0  0  0  0
   -1.4289    1.0865    0.0000 C   0  0  0  0  0  0  0  0  0  0  0  0
   -1.4289    1.9115    0.0000 C   0  0  0  0  0  0  0  0  0  0  0  0
   -2.1434    2.3240    0.0000 S   0  0  0  0  0  0  0  0  0  0  0  0
   -2.1434   -0.1510    0.0000 C   0  0  0  0  0  0  0  0  0  0  0  0
   -0.7145    2.3240    0.0000 C   0  0  0  0  0  0  0  0  0  0  0  0
   -1.7309    3.0385    0.0000 O   0  0  0  0  0  0  0  0  0  0  0  0
   -2.7268    2.9074    0.0000 O   0  0  0  0  0  0  0  0  0  0  0  0
   -2.8579   -0.5635    0.0000 C   0  0  0  0  0  0  0  0  0  0  0  0
   -2.8579   -1.3885    0.0000 C   0  0  0  0  0  0  0  0  0  0  0  0
   -2.1434   -1.8010    0.0000 N   0  0  0  0  0  0  0  0  0  0  0  0
   -1.4289   -1.3885    0.0000 C   0  0  0  0  0  0  0  0  0  0  0  0
   -1.4289   -0.5635    0.0000 N   0  0  0  0  0  0  0  0  0  0  0  0
   -3.5724   -0.1510    0.0000 Cl  0  0  0  0  0  0  0  0  0  0  0  0
   -0.7145   -1.8010    0.0000 N   0  0  0  0  0  0  0  0  0  0  0  0
    0.0000   -1.3885    0.0000 C   0  0  0  0  0  0  0  0  0  0  0  0
    0.7145   -1.8010    0.0000 C   0  0  0  0  0  0  0  0  0  0  0  0
    1.4289   -1.3885    0.0000 C   0  0  0  0  0  0  0  0  0  0  0  0
    1.4289   -0.5635    0.0000 C   0  0  0  0  0  0  0  0  0  0  0  0
    0.7145   -0.1510    0.0000 C   0  0  0  0  0  0  0  0  0  0  0  0
    0.0000   -0.5635    0.0000 C   0  0  0  0  0  0  0  0  0  0  0  0
    0.7145   -2.6260    0.0000 O   0  0  0  0  0  0  0  0  0  0  0  0
    1.4289   -3.0385    0.0000 C   0  0  0  0  0  0  0  0  0  0  0  0
    2.1434   -0.1510    0.0000 C   0  0  0  0  0  0  0  0  0  0  0  0
    2.1434    0.6740    0.0000 N   0  0  0  0  0  0  0  0  0  0  0  0
    1.4289    1.0865    0.0000 C   0  0  0  0  0  0  0  0  0  0  0  0
    0.7145    0.6740    0.0000 C   0  0  0  0  0  0  0  0  0  0  0  0
    2.8579    1.0865    0.0000 C   0  0  0  0  0  0  0  0  0  0  0  0
    3.5724    0.6740    0.0000 C   0  0  0  0  0  0  0  0  0  0  0  0
    2.8579    1.9115    0.0000 O   0  0  0  0  0  0  0  0  0  0  0  0
    4.2868    1.0865    0.0000 O   0  0  0  0  0  0  0  0  0  0  0  0
  1  2  4  0  0  0  0
  2  3  4  0  0  0  0
  3  4  4  0  0  0  0
  4  5  4  0  0  0  0
  5  6  4  0  0  0  0
  6  1  4  0  0  0  0
  4  7  1  0  0  0  0
  8  9  1  0  0  0  0
  9 10  1  0  0  0  0
 10  5  1  0  0  0  0
  7 11  1  0  0  0  0
  9 12  1  0  0  0  0
 10 13  2  0  0  0  0
 10 14  2  0  0  0  0
 11 15  4  0  0  0  0
 15 16  4  0  0  0  0
 16 17  4  0  0  0  0
 17 18  4  0  0  0  0
 18 19  4  0  0  0  0
 19 11  4  0  0  0  0
 15 20  1  0  0  0  0
 18 21  1  0  0  0  0
 21 22  1  0  0  0  0
 22 23  4  0  0  0  0
 23 24  4  0  0  0  0
 24 25  4  0  0  0  0
 25 26  4  0  0  0  0
 26 27  4  0  0  0  0
 27 22  4  0  0  0  0
 23 28  1  0  0  0  0
 28 29  1  0  0  0  0
 25 30  1  0  0  0  0
 30 31  1  0  0  0  0
 31 32  1  0  0  0  0
 32 33  1  0  0  0  0
 33 26  1  0  0  0  0
 31 34  1  0  0  0  0
 34 35  1  0  0  0  0
 34 36  2  0  0  0  0
 35 37  1  0  0  0  0
M  END
> <From>
www.bindingDB.org

> <BindingDB Reactant_set_id>
490374

> <Ligand InChI>
InChI=1S/C25H28ClN5O5S/c1-15(2)37(34,35)22-7-5-4-6-19(22)28-24-18(26)12-27-25(30-24)29-20-10-16-8-9-31(23(33)14-32)13-17(16)11-21(20)36-3/h4-7,10-12,15,32H,8-9,13-14H2,1-3H3,(H2,27,28,29,30)

> <Ligand InChI Key>
VHAGOIOZMNDCRO-UHFFFAOYSA-N

> <BindingDB MonomerID>
243376

> <BindingDB Ligand Name>
1-6-(5-chloro-4-(2-(isopropylsulfonyl)phenylamino)pyrimidin-2-yl)amino-7-methoxy-3,4-dihydroisoquinoline-2(1H)-yl-2-hydroxyethane-1-one::US10053458, 8

> <Target Name Assigned by Curator or DataSource>
ALK tyrosine kinase receptor

> <Target Source Organism According to Curator or DataSource>
Homo sapiens

> <Ki (nM)>


> <IC50 (nM)>
 1.000

> <Kd (nM)>


> <EC50 (nM)>


> <kon (M-1-s-1)>


> <koff (s-1)>


> <pH>


> <Temp C>
25.00

> <Curation/DataSource>
US Patent

> <Article DOI>


> <PMID>


> <PubChem AID>


> <Patent Number>
US10053458

> <Authors>
Yun, CS; Kim, HR; Cho, SY; Jung, HJ; Lee, K; Chae, CH; Lee, CO; Park, CH; Kim, P; Hwang, JY; Ha, JD; Ahn, SJ

> <Institution>
KOREA RESEARCH INSTITUTE OF CHEMICAL TECHNOLOGY

> <Link to Ligand in BindingDB>
http://www.bindingdb.org/bind/chemsearch/marvin/MolStructure.jsp?monomerid=243376

> <Link to Ligand-Target Pair in BindingDB>
http://www.bindingdb.org/jsp/dbsearch/PrimarySearch_ki.jsp?energyterm=kJ/mole&tag=pol&polymerid=5809&target=ALK+tyrosine+kinase+receptor&column=ki&startPg=0&Increment=50&submit=Search

> <Link to Ligand-Target Pair in BindingDB>
http://www.bindingdb.org/jsp/dbsearch/PrimarySearch_ki.jsp?energyterm=kJ/mole&tag=r21&monomerid=243376&enzyme=ALK+tyrosine+kinase+receptor&column=ki&startPg=0&Increment=50&submit=Search

> <Ligand HET ID in PDB>


> <PDB ID(s) for Ligand-Target Complex>


> <PubChem CID>
129048515

> <PubChem SID>
376221759

> <ChEBI ID of Ligand>


> <ChEMBL ID of Ligand>


> <DrugBank ID of Ligand>


> <IUPHAR_GRAC ID of Ligand>


> <KEGG ID of Ligand>


> <ZINC ID of Ligand>


> <Number of Protein Chains in Target (>1 implies a multichain complex)>
1

> <BindingDB Target Chain Sequence>
MGAIGLLWLLPLLLSTAAVGSGMGTGQRAGSPAAGPPLQPREPLSYSRLQRKSLAVDFVVPSLFRVYARDLLLPPSSSELKAGRPEARGSLALDCAPLLRLLGPAPGVSWTAGSPAPAEARTLSRVLKGGSVRKLRRAKQLVLELGEEAILEGCVGPPGEAAVGLLQFNLSELFSWWIRQGEGRLRIRLMPEKKASEVGREGRLSAAIRASQPRLLFQIFGTGHSSLESPTNMPSPSPDYFTWNLTWIMKDSFPFLSHRSRYGLECSFDFPCELEYSPPLHDLRNQSWSWRRIPSEEASQMDLLDGPGAERSKEMPRGSFLLLNTSADSKHTILSPWMRSSSEHCTLAVSVHRHLQPSGRYIAQLLPHNEAAREILLMPTPGKHGWTVLQGRIGRPDNPFRVALEYISSGNRSLSAVDFFALKNCSEGTSPGSKMALQSSFTCWNGTVLQLGQACDFHQDCAQGEDESQMCRKLPVGFYCNFEDGFCGWTQGTLSPHTPQWQVRTLKDARFQDHQDHALLLSTTDVPASESATVTSATFPAPIKSSPCELRMSWLIRGVLRGNVSLVLVENKTGKEQGRMVWHVAAYEGLSLWQWMVLPLLDVSDRFWLQMVAWWGQGSRAIVAFDNISISLDCYLTISGEDKILQNTAPKSRNLFERNPNKELKPGENSPRQTPIFDPTVHWLFTTCGASGPHGPTQAQCNNAYQNSNLSVEVGSEGPLKGIQIWKVPATDTYSISGYGAAGGKGGKNTMMRSHGVSVLGIFNLEKDDMLYILVGQQGEDACPSTNQLIQKVCIGENNVIEEEIRVNRSVHEWAGGGGGGGGATYVFKMKDGVPVPLIIAAGGGGRAYGAKTDTFHPERLENNSSVLGLNGNSGAAGGGGGWNDNTSLLWAGKSLQEGATGGHSCPQAMKKWGWETRGGFGGGGGGCSSGGGGGGYIGGNAASNNDPEMDGEDGVSFISPLGILYTPALKVMEGHGEVNIKHYLNCSHCEVDECHMDPESHKVICFCDHGTVLAEDGVSCIVSPTPEPHLPLSLILSVVTSALVAALVLAFSGIMIVYRRKHQELQAMQMELQSPEYKLSKLRTSTIMTDYNPNYCFAGKTSSISDLKEVPRKNITLIRGLGHGAFGEVYEGQVSGMPNDPSPLQVAVKTLPEVCSEQDELDFLMEALIISKFNHQNIVRCIGVSLQSLPRFILLELMAGGDLKSFLRETRPRPSQPSSLAMLDLLHVARDIACGCQYLEENHFIHRDIAARNCLLTCPGPGRVAKIGDFGMARDIYRASYYRKGGCAMLPVKWMPPEAFMEGIFTSKTDTWSFGVLLWEIFSLGYMPYPSKSNQEVLEFVTSGGRMDPPKNCPGPVYRIMTQCWQHQPEDRPNFAIILERIEYCTQDPDVINTALPIEYGPLVEEEEKVPVRPKDPEGVPPLLVSQQAKREEERSPAAPPPLPTTSSGKAAKKPTAAEISVRVPRGPAVEGGHVNMAFSQSNPPSELHKVHGSRNKPTSLWNPTYGSWFTEKPTKKNNPIAKKEPHDRGNLGLEGSCTVPPNVATGRLPGASLLLEPSSLTANMKEVPLFRLRHFPCGNVNYGYQQQGLPLEAATAPGAGHYEDTILKSKNSMNQPGP

> <PDB ID(s) of Target Chain>
2XB7,2XBA,3AOX,5FTO,5FTQ,6E0R,6EBW,6EDL,6MX8

> <UniProt (SwissProt) Recommended Name of Target Chain>
ALK tyrosine kinase receptor

> <UniProt (SwissProt) Entry Name of Target Chain>
ALK_HUMAN

> <UniProt (SwissProt) Primary ID of Target Chain>
Q9UM73

> <UniProt (SwissProt) Secondary ID(s) of Target Chain>
Q4ZFX9,Q53QQ6,Q53RZ4,Q59FI3,Q9Y4K6

> <UniProt (SwissProt) Alternative ID(s) of Target Chain>


> <UniProt (TrEMBL) Submitted Name of Target Chain>


> <UniProt (TrEMBL) Entry Name of Target Chain>


> <UniProt (TrEMBL) Primary ID of Target Chain>


> <UniProt (TrEMBL) Secondary ID(s) of Target Chain>


> <UniProt (TrEMBL) Alternative ID(s) of Target Chain>


$$$$
00203001.cdx
  Mrv0541 10181809492D          

 37 40  0  0  0  0            999 V2000
   -3.9296    1.9115    0.0000 C   0  0  0  0  0  0  0  0  0  0  0  0
   -3.9296    1.0865    0.0000 C   0  0  0  0  0  0  0  0  0  0  0  0
   -3.2151    0.6740    0.0000 C   0  0  0  0  0  0  0  0  0  0  0  0
   -2.5006    1.0865    0.0000 C   0  0  0  0  0  0  0  0  0  0  0  0
   -2.5006    1.9115    0.0000 C   0  0  0  0  0  0  0  0  0  0  0  0
   -3.2151    2.3240    0.0000 C   0  0  0  0  0  0  0  0  0  0  0  0
   -1.7862    0.6740    0.0000 N   0  0  0  0  0  0  0  0  0  0  0  0
   -1.0717    1.0865    0.0000 C   0  0  0  0  0  0  0  0  0  0  0  0
   -1.0717    1.9115    0.0000 C   0  0  0  0  0  0  0  0  0  0  0  0
   -1.7862    2.3240    0.0000 S   0  0  0  0  0  0  0  0  0  0  0  0
   -1.7862   -0.1510    0.0000 C   0  0  0  0  0  0  0  0  0  0  0  0
   -0.3572    2.3240    0.0000 C   0  0  0  0  0  0  0  0  0  0  0  0
   -1.3737    3.0385    0.0000 O   0  0  0  0  0  0  0  0  0  0  0  0
   -2.3695    2.9074    0.0000 O   0  0  0  0  0  0  0  0  0  0  0  0
   -2.5006   -0.5635    0.0000 C   0  0  0  0  0  0  0  0  0  0  0  0
   -2.5006   -1.3885    0.0000 C   0  0  0  0  0  0  0  0  0  0  0  0
   -1.7862   -1.8010    0.0000 N   0  0  0  0  0  0  0  0  0  0  0  0
   -1.0717   -1.3885    0.0000 C   0  0  0  0  0  0  0  0  0  0  0  0
   -1.0717   -0.5635    0.0000 N   0  0  0  0  0  0  0  0  0  0  0  0
   -3.2151   -0.1510    0.0000 Cl  0  0  0  0  0  0  0  0  0  0  0  0
   -0.3572   -1.8010    0.0000 N   0  0  0  0  0  0  0  0  0  0  0  0
    0.3572   -1.3885    0.0000 C   0  0  0  0  0  0  0  0  0  0  0  0
    1.0717   -1.8010    0.0000 C   0  0  0  0  0  0  0  0  0  0  0  0
    1.7862   -1.3885    0.0000 C   0  0  0  0  0  0  0  0  0  0  0  0
    1.7862   -0.5635    0.0000 C   0  0  0  0  0  0  0  0  0  0  0  0
    1.0717   -0.1510    0.0000 C   0  0  0  0  0  0  0  0  0  0  0  0
    0.3572   -0.5635    0.0000 C   0  0  0  0  0  0  0  0  0  0  0  0
    1.0717   -2.6260    0.0000 O   0  0  0  0  0  0  0  0  0  0  0  0
    1.7862   -3.0385    0.0000 C   0  0  0  0  0  0  0  0  0  0  0  0
    2.5006   -0.1510    0.0000 C   0  0  0  0  0  0  0  0  0  0  0  0
    2.5006    0.6740    0.0000 N   0  0  0  0  0  0  0  0  0  0  0  0
    1.7862    1.0865    0.0000 C   0  0  0  0  0  0  0  0  0  0  0  0
    1.0717    0.6740    0.0000 C   0  0  0  0  0  0  0  0  0  0  0  0
    3.2151    1.0865    0.0000 S   0  0  0  0  0  0  0  0  0  0  0  0
    3.9296    0.6740    0.0000 N   0  0  0  0  0  0  0  0  0  0  0  0
    2.8026    1.8010    0.0000 O   0  0  0  0  0  0  0  0  0  0  0  0
    3.6276    1.8010    0.0000 O   0  0  0  0  0  0  0  0  0  0  0  0
  1  2  4  0  0  0  0
  2  3  4  0  0  0  0
  3  4  4  0  0  0  0
  4  5  4  0  0  0  0
  5  6  4  0  0  0  0
  6  1  4  0  0  0  0
  4  7  1  0  0  0  0
  8  9  1  0  0  0  0
  9 10  1  0  0  0  0
 10  5  1  0  0  0  0
  7 11  1  0  0  0  0
  9 12  1  0  0  0  0
 10 13  2  0  0  0  0
 10 14  2  0  0  0  0
 11 15  4  0  0  0  0
 15 16  4  0  0  0  0
 16 17  4  0  0  0  0
 17 18  4  0  0  0  0
 18 19  4  0  0  0  0
 19 11  4  0  0  0  0
 15 20  1  0  0  0  0
 18 21  1  0  0  0  0
 21 22  1  0  0  0  0
 22 23  4  0  0  0  0
 23 24  4  0  0  0  0
 24 25  4  0  0  0  0
 25 26  4  0  0  0  0
 26 27  4  0  0  0  0
 27 22  4  0  0  0  0
 23 28  1  0  0  0  0
 28 29  1  0  0  0  0
 25 30  1  0  0  0  0
 30 31  1  0  0  0  0
 31 32  1  0  0  0  0
 32 33  1  0  0  0  0
 33 26  1  0  0  0  0
 31 34  1  0  0  0  0
 34 35  1  0  0  0  0
 34 36  2  0  0  0  0
 34 37  2  0  0  0  0
M  END
> <From>
www.bindingDB.org

> <BindingDB Reactant_set_id>
490376

> <Ligand InChI>
InChI=1S/C23H27ClN6O5S2/c1-14(2)36(31,32)21-7-5-4-6-18(21)27-22-17(24)12-26-23(29-22)28-19-10-15-8-9-30(37(25,33)34)13-16(15)11-20(19)35-3/h4-7,10-12,14H,8-9,13H2,1-3H3,(H2,25,33,34)(H2,26,27,28,29)

> <Ligand InChI Key>
KLNAYAYIBPVNHG-UHFFFAOYSA-N

> <BindingDB MonomerID>
243377

> <BindingDB Ligand Name>
6-(5-chloro-4-(2-(isopropylsulfonyl)phenylamino)pyrimidin-2-yl)amino-7-methoxy-3,4-dihydroisoquinoline-2(1H)-sulfonamide::US10053458, 9

> <Target Name Assigned by Curator or DataSource>
ALK tyrosine kinase receptor

> <Target Source Organism According to Curator or DataSource>
Homo sapiens

> <Ki (nM)>


> <IC50 (nM)>
<10.00

> <Kd (nM)>


> <EC50 (nM)>


> <kon (M-1-s-1)>


> <koff (s-1)>


> <pH>


> <Temp C>
25.00

> <Curation/DataSource>
US Patent

> <Article DOI>


> <PMID>


> <PubChem AID>


> <Patent Number>
US10053458

> <Authors>
Yun, CS; Kim, HR; Cho, SY; Jung, HJ; Lee, K; Chae, CH; Lee, CO; Park, CH; Kim, P; Hwang, JY; Ha, JD; Ahn, SJ

> <Institution>
KOREA RESEARCH INSTITUTE OF CHEMICAL TECHNOLOGY

> <Link to Ligand in BindingDB>
http://www.bindingdb.org/bind/chemsearch/marvin/MolStructure.jsp?monomerid=243377

> <Link to Ligand-Target Pair in BindingDB>
http://www.bindingdb.org/jsp/dbsearch/PrimarySearch_ki.jsp?energyterm=kJ/mole&tag=pol&polymerid=5809&target=ALK+tyrosine+kinase+receptor&column=ki&startPg=0&Increment=50&submit=Search

> <Link to Ligand-Target Pair in BindingDB>
http://www.bindingdb.org/jsp/dbsearch/PrimarySearch_ki.jsp?energyterm=kJ/mole&tag=r21&monomerid=243377&enzyme=ALK+tyrosine+kinase+receptor&column=ki&startPg=0&Increment=50&submit=Search

> <Ligand HET ID in PDB>


> <PDB ID(s) for Ligand-Target Complex>


> <PubChem CID>
129048540

> <PubChem SID>
376221760

> <ChEBI ID of Ligand>


> <ChEMBL ID of Ligand>


> <DrugBank ID of Ligand>


> <IUPHAR_GRAC ID of Ligand>


> <KEGG ID of Ligand>


> <ZINC ID of Ligand>


> <Number of Protein Chains in Target (>1 implies a multichain complex)>
1

> <BindingDB Target Chain Sequence>
MGAIGLLWLLPLLLSTAAVGSGMGTGQRAGSPAAGPPLQPREPLSYSRLQRKSLAVDFVVPSLFRVYARDLLLPPSSSELKAGRPEARGSLALDCAPLLRLLGPAPGVSWTAGSPAPAEARTLSRVLKGGSVRKLRRAKQLVLELGEEAILEGCVGPPGEAAVGLLQFNLSELFSWWIRQGEGRLRIRLMPEKKASEVGREGRLSAAIRASQPRLLFQIFGTGHSSLESPTNMPSPSPDYFTWNLTWIMKDSFPFLSHRSRYGLECSFDFPCELEYSPPLHDLRNQSWSWRRIPSEEASQMDLLDGPGAERSKEMPRGSFLLLNTSADSKHTILSPWMRSSSEHCTLAVSVHRHLQPSGRYIAQLLPHNEAAREILLMPTPGKHGWTVLQGRIGRPDNPFRVALEYISSGNRSLSAVDFFALKNCSEGTSPGSKMALQSSFTCWNGTVLQLGQACDFHQDCAQGEDESQMCRKLPVGFYCNFEDGFCGWTQGTLSPHTPQWQVRTLKDARFQDHQDHALLLSTTDVPASESATVTSATFPAPIKSSPCELRMSWLIRGVLRGNVSLVLVENKTGKEQGRMVWHVAAYEGLSLWQWMVLPLLDVSDRFWLQMVAWWGQGSRAIVAFDNISISLDCYLTISGEDKILQNTAPKSRNLFERNPNKELKPGENSPRQTPIFDPTVHWLFTTCGASGPHGPTQAQCNNAYQNSNLSVEVGSEGPLKGIQIWKVPATDTYSISGYGAAGGKGGKNTMMRSHGVSVLGIFNLEKDDMLYILVGQQGEDACPSTNQLIQKVCIGENNVIEEEIRVNRSVHEWAGGGGGGGGATYVFKMKDGVPVPLIIAAGGGGRAYGAKTDTFHPERLENNSSVLGLNGNSGAAGGGGGWNDNTSLLWAGKSLQEGATGGHSCPQAMKKWGWETRGGFGGGGGGCSSGGGGGGYIGGNAASNNDPEMDGEDGVSFISPLGILYTPALKVMEGHGEVNIKHYLNCSHCEVDECHMDPESHKVICFCDHGTVLAEDGVSCIVSPTPEPHLPLSLILSVVTSALVAALVLAFSGIMIVYRRKHQELQAMQMELQSPEYKLSKLRTSTIMTDYNPNYCFAGKTSSISDLKEVPRKNITLIRGLGHGAFGEVYEGQVSGMPNDPSPLQVAVKTLPEVCSEQDELDFLMEALIISKFNHQNIVRCIGVSLQSLPRFILLELMAGGDLKSFLRETRPRPSQPSSLAMLDLLHVARDIACGCQYLEENHFIHRDIAARNCLLTCPGPGRVAKIGDFGMARDIYRASYYRKGGCAMLPVKWMPPEAFMEGIFTSKTDTWSFGVLLWEIFSLGYMPYPSKSNQEVLEFVTSGGRMDPPKNCPGPVYRIMTQCWQHQPEDRPNFAIILERIEYCTQDPDVINTALPIEYGPLVEEEEKVPVRPKDPEGVPPLLVSQQAKREEERSPAAPPPLPTTSSGKAAKKPTAAEISVRVPRGPAVEGGHVNMAFSQSNPPSELHKVHGSRNKPTSLWNPTYGSWFTEKPTKKNNPIAKKEPHDRGNLGLEGSCTVPPNVATGRLPGASLLLEPSSLTANMKEVPLFRLRHFPCGNVNYGYQQQGLPLEAATAPGAGHYEDTILKSKNSMNQPGP

> <PDB ID(s) of Target Chain>
2XB7,2XBA,3AOX,5FTO,5FTQ,6E0R,6EBW,6EDL,6MX8

> <UniProt (SwissProt) Recommended Name of Target Chain>
ALK tyrosine kinase receptor

> <UniProt (SwissProt) Entry Name of Target Chain>
ALK_HUMAN

> <UniProt (SwissProt) Primary ID of Target Chain>
Q9UM73

> <UniProt (SwissProt) Secondary ID(s) of Target Chain>
Q4ZFX9,Q53QQ6,Q53RZ4,Q59FI3,Q9Y4K6

> <UniProt (SwissProt) Alternative ID(s) of Target Chain>


> <UniProt (TrEMBL) Submitted Name of Target Chain>


> <UniProt (TrEMBL) Entry Name of Target Chain>


> <UniProt (TrEMBL) Primary ID of Target Chain>


> <UniProt (TrEMBL) Secondary ID(s) of Target Chain>


> <UniProt (TrEMBL) Alternative ID(s) of Target Chain>


$$$$
00204001.cdx
  Mrv0541 10181809492D          

 39 42  0  0  0  0            999 V2000
   -4.6441    1.9115    0.0000 C   0  0  0  0  0  0  0  0  0  0  0  0
   -4.6441    1.0865    0.0000 C   0  0  0  0  0  0  0  0  0  0  0  0
   -3.9296    0.6740    0.0000 C   0  0  0  0  0  0  0  0  0  0  0  0
   -3.2151    1.0865    0.0000 C   0  0  0  0  0  0  0  0  0  0  0  0
   -3.2151    1.9115    0.0000 C   0  0  0  0  0  0  0  0  0  0  0  0
   -3.9296    2.3240    0.0000 C   0  0  0  0  0  0  0  0  0  0  0  0
   -2.5006    0.6740    0.0000 N   0  0  0  0  0  0  0  0  0  0  0  0
   -1.7862    1.0865    0.0000 C   0  0  0  0  0  0  0  0  0  0  0  0
   -1.7862    1.9115    0.0000 C   0  0  0  0  0  0  0  0  0  0  0  0
   -2.5006    2.3240    0.0000 S   0  0  0  0  0  0  0  0  0  0  0  0
   -2.5006   -0.1510    0.0000 C   0  0  0  0  0  0  0  0  0  0  0  0
   -1.0717    2.3240    0.0000 C   0  0  0  0  0  0  0  0  0  0  0  0
   -2.0881    3.0385    0.0000 O   0  0  0  0  0  0  0  0  0  0  0  0
   -3.0840    2.9074    0.0000 O   0  0  0  0  0  0  0  0  0  0  0  0
   -3.2151   -0.5635    0.0000 C   0  0  0  0  0  0  0  0  0  0  0  0
   -3.2151   -1.3885    0.0000 C   0  0  0  0  0  0  0  0  0  0  0  0
   -2.5006   -1.8010    0.0000 N   0  0  0  0  0  0  0  0  0  0  0  0
   -1.7862   -1.3885    0.0000 C   0  0  0  0  0  0  0  0  0  0  0  0
   -1.7862   -0.5635    0.0000 N   0  0  0  0  0  0  0  0  0  0  0  0
   -3.9296   -0.1510    0.0000 Cl  0  0  0  0  0  0  0  0  0  0  0  0
   -1.0717   -1.8010    0.0000 N   0  0  0  0  0  0  0  0  0  0  0  0
   -0.3572   -1.3885    0.0000 C   0  0  0  0  0  0  0  0  0  0  0  0
    0.3572   -1.8010    0.0000 C   0  0  0  0  0  0  0  0  0  0  0  0
    1.0717   -1.3885    0.0000 C   0  0  0  0  0  0  0  0  0  0  0  0
    1.0717   -0.5635    0.0000 C   0  0  0  0  0  0  0  0  0  0  0  0
    0.3572   -0.1510    0.0000 C   0  0  0  0  0  0  0  0  0  0  0  0
   -0.3572   -0.5635    0.0000 C   0  0  0  0  0  0  0  0  0  0  0  0
    0.3572   -2.6260    0.0000 O   0  0  0  0  0  0  0  0  0  0  0  0
    1.0717   -3.0385    0.0000 C   0  0  0  0  0  0  0  0  0  0  0  0
    1.7862   -0.1510    0.0000 C   0  0  0  0  0  0  0  0  0  0  0  0
    1.7862    0.6740    0.0000 N   0  0  0  0  0  0  0  0  0  0  0  0
    1.0717    1.0865    0.0000 C   0  0  0  0  0  0  0  0  0  0  0  0
    0.3572    0.6740    0.0000 C   0  0  0  0  0  0  0  0  0  0  0  0
    2.5006    1.0865    0.0000 C   0  0  0  0  0  0  0  0  0  0  0  0
    3.2151    0.6740    0.0000 C   0  0  0  0  0  0  0  0  0  0  0  0
    3.9296    1.0865    0.0000 N   0  0  0  0  0  0  0  0  0  0  0  0
    3.2151   -0.1510    0.0000 O   0  0  0  0  0  0  0  0  0  0  0  0
    4.6441    0.6740    0.0000 C   0  0  0  0  0  0  0  0  0  0  0  0
    3.9296    1.9115    0.0000 C   0  0  0  0  0  0  0  0  0  0  0  0
  1  2  4  0  0  0  0
  2  3  4  0  0  0  0
  3  4  4  0  0  0  0
  4  5  4  0  0  0  0
  5  6  4  0  0  0  0
  6  1  4  0  0  0  0
  4  7  1  0  0  0  0
  8  9  1  0  0  0  0
  9 10  1  0  0  0  0
 10  5  1  0  0  0  0
  7 11  1  0  0  0  0
  9 12  1  0  0  0  0
 10 13  2  0  0  0  0
 10 14  2  0  0  0  0
 11 15  4  0  0  0  0
 15 16  4  0  0  0  0
 16 17  4  0  0  0  0
 17 18  4  0  0  0  0
 18 19  4  0  0  0  0
 19 11  4  0  0  0  0
 15 20  1  0  0  0  0
 18 21  1  0  0  0  0
 21 22  1  0  0  0  0
 22 23  4  0  0  0  0
 23 24  4  0  0  0  0
 24 25  4  0  0  0  0
 25 26  4  0  0  0  0
 26 27  4  0  0  0  0
 27 22  4  0  0  0  0
 23 28  1  0  0  0  0
 28 29  1  0  0  0  0
 25 30  1  0  0  0  0
 30 31  1  0  0  0  0
 31 32  1  0  0  0  0
 32 33  1  0  0  0  0
 33 26  1  0  0  0  0
 31 34  1  0  0  0  0
 34 35  1  0  0  0  0
 35 36  1  0  0  0  0
 35 37  2  0  0  0  0
 36 38  1  0  0  0  0
 36 39  1  0  0  0  0
M  END
> <From>
www.bindingDB.org

> <BindingDB Reactant_set_id>
490378

> <Ligand InChI>
InChI=1S/C27H33ClN6O4S/c1-17(2)39(36,37)24-9-7-6-8-21(24)30-26-20(28)14-29-27(32-26)31-22-12-18-10-11-34(16-25(35)33(3)4)15-19(18)13-23(22)38-5/h6-9,12-14,17H,10-11,15-16H2,1-5H3,(H2,29,30,31,32)

> <Ligand InChI Key>
WREJSHALYATLCM-UHFFFAOYSA-N

> <BindingDB MonomerID>
243378

> <BindingDB Ligand Name>
2-(6-(5-chloro-4-(2-(isopropylsulfonyl)phenylamino)pyrimidin-2-yl)amino-7-methoxy-3,4-dihydroisoquinoline-2(1H)-yl-N,N-dimethylacetamide::US10053458, 10

> <Target Name Assigned by Curator or DataSource>
ALK tyrosine kinase receptor

> <Target Source Organism According to Curator or DataSource>
Homo sapiens

> <Ki (nM)>


> <IC50 (nM)>
<10.00

> <Kd (nM)>


> <EC50 (nM)>


> <kon (M-1-s-1)>


> <koff (s-1)>


> <pH>


> <Temp C>
25.00

> <Curation/DataSource>
US Patent

> <Article DOI>


> <PMID>


> <PubChem AID>


> <Patent Number>
US10053458

> <Authors>
Yun, CS; Kim, HR; Cho, SY; Jung, HJ; Lee, K; Chae, CH; Lee, CO; Park, CH; Kim, P; Hwang, JY; Ha, JD; Ahn, SJ

> <Institution>
KOREA RESEARCH INSTITUTE OF CHEMICAL TECHNOLOGY

> <Link to Ligand in BindingDB>
http://www.bindingdb.org/bind/chemsearch/marvin/MolStructure.jsp?monomerid=243378

> <Link to Ligand-Target Pair in BindingDB>
http://www.bindingdb.org/jsp/dbsearch/PrimarySearch_ki.jsp?energyterm=kJ/mole&tag=pol&polymerid=5809&target=ALK+tyrosine+kinase+receptor&column=ki&startPg=0&Increment=50&submit=Search

> <Link to Ligand-Target Pair in BindingDB>
http://www.bindingdb.org/jsp/dbsearch/PrimarySearch_ki.jsp?energyterm=kJ/mole&tag=r21&monomerid=243378&enzyme=ALK+tyrosine+kinase+receptor&column=ki&startPg=0&Increment=50&submit=Search

> <Ligand HET ID in PDB>


> <PDB ID(s) for Ligand-Target Complex>


> <PubChem CID>
129048567

> <PubChem SID>
376221761

> <ChEBI ID of Ligand>


> <ChEMBL ID of Ligand>


> <DrugBank ID of Ligand>


> <IUPHAR_GRAC ID of Ligand>


> <KEGG ID of Ligand>


> <ZINC ID of Ligand>


> <Number of Protein Chains in Target (>1 implies a multichain complex)>
1

> <BindingDB Target Chain Sequence>
MGAIGLLWLLPLLLSTAAVGSGMGTGQRAGSPAAGPPLQPREPLSYSRLQRKSLAVDFVVPSLFRVYARDLLLPPSSSELKAGRPEARGSLALDCAPLLRLLGPAPGVSWTAGSPAPAEARTLSRVLKGGSVRKLRRAKQLVLELGEEAILEGCVGPPGEAAVGLLQFNLSELFSWWIRQGEGRLRIRLMPEKKASEVGREGRLSAAIRASQPRLLFQIFGTGHSSLESPTNMPSPSPDYFTWNLTWIMKDSFPFLSHRSRYGLECSFDFPCELEYSPPLHDLRNQSWSWRRIPSEEASQMDLLDGPGAERSKEMPRGSFLLLNTSADSKHTILSPWMRSSSEHCTLAVSVHRHLQPSGRYIAQLLPHNEAAREILLMPTPGKHGWTVLQGRIGRPDNPFRVALEYISSGNRSLSAVDFFALKNCSEGTSPGSKMALQSSFTCWNGTVLQLGQACDFHQDCAQGEDESQMCRKLPVGFYCNFEDGFCGWTQGTLSPHTPQWQVRTLKDARFQDHQDHALLLSTTDVPASESATVTSATFPAPIKSSPCELRMSWLIRGVLRGNVSLVLVENKTGKEQGRMVWHVAAYEGLSLWQWMVLPLLDVSDRFWLQMVAWWGQGSRAIVAFDNISISLDCYLTISGEDKILQNTAPKSRNLFERNPNKELKPGENSPRQTPIFDPTVHWLFTTCGASGPHGPTQAQCNNAYQNSNLSVEVGSEGPLKGIQIWKVPATDTYSISGYGAAGGKGGKNTMMRSHGVSVLGIFNLEKDDMLYILVGQQGEDACPSTNQLIQKVCIGENNVIEEEIRVNRSVHEWAGGGGGGGGATYVFKMKDGVPVPLIIAAGGGGRAYGAKTDTFHPERLENNSSVLGLNGNSGAAGGGGGWNDNTSLLWAGKSLQEGATGGHSCPQAMKKWGWETRGGFGGGGGGCSSGGGGGGYIGGNAASNNDPEMDGEDGVSFISPLGILYTPALKVMEGHGEVNIKHYLNCSHCEVDECHMDPESHKVICFCDHGTVLAEDGVSCIVSPTPEPHLPLSLILSVVTSALVAALVLAFSGIMIVYRRKHQELQAMQMELQSPEYKLSKLRTSTIMTDYNPNYCFAGKTSSISDLKEVPRKNITLIRGLGHGAFGEVYEGQVSGMPNDPSPLQVAVKTLPEVCSEQDELDFLMEALIISKFNHQNIVRCIGVSLQSLPRFILLELMAGGDLKSFLRETRPRPSQPSSLAMLDLLHVARDIACGCQYLEENHFIHRDIAARNCLLTCPGPGRVAKIGDFGMARDIYRASYYRKGGCAMLPVKWMPPEAFMEGIFTSKTDTWSFGVLLWEIFSLGYMPYPSKSNQEVLEFVTSGGRMDPPKNCPGPVYRIMTQCWQHQPEDRPNFAIILERIEYCTQDPDVINTALPIEYGPLVEEEEKVPVRPKDPEGVPPLLVSQQAKREEERSPAAPPPLPTTSSGKAAKKPTAAEISVRVPRGPAVEGGHVNMAFSQSNPPSELHKVHGSRNKPTSLWNPTYGSWFTEKPTKKNNPIAKKEPHDRGNLGLEGSCTVPPNVATGRLPGASLLLEPSSLTANMKEVPLFRLRHFPCGNVNYGYQQQGLPLEAATAPGAGHYEDTILKSKNSMNQPGP

> <PDB ID(s) of Target Chain>
2XB7,2XBA,3AOX,5FTO,5FTQ,6E0R,6EBW,6EDL,6MX8

> <UniProt (SwissProt) Recommended Name of Target Chain>
ALK tyrosine kinase receptor

> <UniProt (SwissProt) Entry Name of Target Chain>
ALK_HUMAN

> <UniProt (SwissProt) Primary ID of Target Chain>
Q9UM73

> <UniProt (SwissProt) Secondary ID(s) of Target Chain>
Q4ZFX9,Q53QQ6,Q53RZ4,Q59FI3,Q9Y4K6

> <UniProt (SwissProt) Alternative ID(s) of Target Chain>


> <UniProt (TrEMBL) Submitted Name of Target Chain>


> <UniProt (TrEMBL) Entry Name of Target Chain>


> <UniProt (TrEMBL) Primary ID of Target Chain>


> <UniProt (TrEMBL) Secondary ID(s) of Target Chain>


> <UniProt (TrEMBL) Alternative ID(s) of Target Chain>


$$$$
00205001.cdx
  Mrv0541 10181809492D          

 41 44  0  0  0  0            999 V2000
   -2.4787    4.3424    0.0000 C   0  0  0  0  0  0  0  0  0  0  0  0
   -1.7642    3.9299    0.0000 C   0  0  0  0  0  0  0  0  0  0  0  0
   -1.7642    3.1049    0.0000 C   0  0  0  0  0  0  0  0  0  0  0  0
   -2.4787    2.6924    0.0000 C   0  0  0  0  0  0  0  0  0  0  0  0
   -3.1931    3.1049    0.0000 C   0  0  0  0  0  0  0  0  0  0  0  0
   -3.1931    3.9299    0.0000 C   0  0  0  0  0  0  0  0  0  0  0  0
   -2.4787    1.8674    0.0000 N   0  0  0  0  0  0  0  0  0  0  0  0
   -5.3366    2.6924    0.0000 C   0  0  0  0  0  0  0  0  0  0  0  0
   -4.6221    2.2799    0.0000 C   0  0  0  0  0  0  0  0  0  0  0  0
   -3.9076    2.6924    0.0000 S   0  0  0  0  0  0  0  0  0  0  0  0
   -1.7642    1.4549    0.0000 C   0  0  0  0  0  0  0  0  0  0  0  0
   -4.6221    1.4549    0.0000 C   0  0  0  0  0  0  0  0  0  0  0  0
   -3.4951    1.9779    0.0000 O   0  0  0  0  0  0  0  0  0  0  0  0
   -4.3201    3.4068    0.0000 O   0  0  0  0  0  0  0  0  0  0  0  0
   -1.0497    1.8674    0.0000 C   0  0  0  0  0  0  0  0  0  0  0  0
   -0.3353    1.4549    0.0000 C   0  0  0  0  0  0  0  0  0  0  0  0
   -0.3353    0.6299    0.0000 N   0  0  0  0  0  0  0  0  0  0  0  0
   -1.0497    0.2174    0.0000 C   0  0  0  0  0  0  0  0  0  0  0  0
   -1.7642    0.6299    0.0000 N   0  0  0  0  0  0  0  0  0  0  0  0
   -1.0497    2.6924    0.0000 Cl  0  0  0  0  0  0  0  0  0  0  0  0
   -1.0497   -0.6076    0.0000 N   0  0  0  0  0  0  0  0  0  0  0  0
   -0.3353   -1.0201    0.0000 C   0  0  0  0  0  0  0  0  0  0  0  0
   -0.3353   -1.8451    0.0000 C   0  0  0  0  0  0  0  0  0  0  0  0
    0.3792   -2.2576    0.0000 C   0  0  0  0  0  0  0  0  0  0  0  0
    1.0937   -1.8451    0.0000 C   0  0  0  0  0  0  0  0  0  0  0  0
    1.0937   -1.0201    0.0000 C   0  0  0  0  0  0  0  0  0  0  0  0
    0.3792   -0.6076    0.0000 C   0  0  0  0  0  0  0  0  0  0  0  0
   -1.0497   -2.2576    0.0000 O   0  0  0  0  0  0  0  0  0  0  0  0
   -1.0497   -3.0826    0.0000 C   0  0  0  0  0  0  0  0  0  0  0  0
    1.8082   -2.2576    0.0000 C   0  0  0  0  0  0  0  0  0  0  0  0
    2.5226   -1.8451    0.0000 N   0  0  0  0  0  0  0  0  0  0  0  0
    2.5226   -1.0201    0.0000 C   0  0  0  0  0  0  0  0  0  0  0  0
    1.8082   -0.6076    0.0000 C   0  0  0  0  0  0  0  0  0  0  0  0
    3.2371   -2.2576    0.0000 C   0  0  0  0  0  0  0  0  0  0  0  0
    3.2371   -3.0826    0.0000 O   0  0  0  0  0  0  0  0  0  0  0  0
    2.1955    0.1208    0.0000 C   0  0  0  0  0  0  0  0  0  0  0  0
    1.4208    0.1208    0.0000 C   0  0  0  0  0  0  0  0  0  0  0  0
    3.9516   -1.8451    0.0000 C   0  0  0  0  0  0  0  0  0  0  0  0
    4.6660   -1.4326    0.0000 F   0  0  0  0  0  0  0  0  0  0  0  0
    4.3641   -2.5596    0.0000 F   0  0  0  0  0  0  0  0  0  0  0  0
    3.5391   -1.1307    0.0000 F   0  0  0  0  0  0  0  0  0  0  0  0
  1  2  4  0  0  0  0
  2  3  4  0  0  0  0
  3  4  4  0  0  0  0
  4  5  4  0  0  0  0
  5  6  4  0  0  0  0
  6  1  4  0  0  0  0
  4  7  1  0  0  0  0
  8  9  1  0  0  0  0
  9 10  1  0  0  0  0
 10  5  1  0  0  0  0
  7 11  1  0  0  0  0
  9 12  1  0  0  0  0
 10 13  2  0  0  0  0
 10 14  2  0  0  0  0
 11 15  4  0  0  0  0
 15 16  4  0  0  0  0
 16 17  4  0  0  0  0
 17 18  4  0  0  0  0
 18 19  4  0  0  0  0
 19 11  4  0  0  0  0
 15 20  1  0  0  0  0
 18 21  1  0  0  0  0
 21 22  1  0  0  0  0
 22 23  4  0  0  0  0
 23 24  4  0  0  0  0
 24 25  4  0  0  0  0
 25 26  4  0  0  0  0
 26 27  4  0  0  0  0
 27 22  4  0  0  0  0
 23 28  1  0  0  0  0
 28 29  1  0  0  0  0
 25 30  1  0  0  0  0
 30 31  1  0  0  0  0
 31 32  1  0  0  0  0
 32 33  1  0  0  0  0
 33 26  1  0  0  0  0
 31 34  1  0  0  0  0
 34 35  2  0  0  0  0
 33 36  1  0  0  0  0
 33 37  1  0  0  0  0
 34 38  1  0  0  0  0
 38 39  1  0  0  0  0
 38 40  1  0  0  0  0
 38 41  1  0  0  0  0
M  END
> <From>
www.bindingDB.org

> <BindingDB Reactant_set_id>
490380

> <Ligand InChI>
InChI=1S/C27H29ClF3N5O4S/c1-15(2)41(38,39)22-9-7-6-8-19(22)33-23-18(28)12-32-25(35-23)34-20-11-17-16(10-21(20)40-5)13-36(14-26(17,3)4)24(37)27(29,30)31/h6-12,15H,13-14H2,1-5H3,(H2,32,33,34,35)

> <Ligand InChI Key>
RCXLKYFKRPZNMY-UHFFFAOYSA-N

> <BindingDB MonomerID>
243379

> <BindingDB Ligand Name>
1-(6-(5-chloro-4-(2-(isopropylsulfonyl)phenylamino)pyrimidin-2-yl)amino-7-methoxy-4,4-dimethyl-3,4-dihydroisoquinolin-2(1H)-yl)-2,2,2-trifluoroethane-1-one::US10053458, 11

> <Target Name Assigned by Curator or DataSource>
ALK tyrosine kinase receptor

> <Target Source Organism According to Curator or DataSource>
Homo sapiens

> <Ki (nM)>


> <IC50 (nM)>
<10.00

> <Kd (nM)>


> <EC50 (nM)>


> <kon (M-1-s-1)>


> <koff (s-1)>


> <pH>


> <Temp C>
25.00

> <Curation/DataSource>
US Patent

> <Article DOI>


> <PMID>


> <PubChem AID>


> <Patent Number>
US10053458

> <Authors>
Yun, CS; Kim, HR; Cho, SY; Jung, HJ; Lee, K; Chae, CH; Lee, CO; Park, CH; Kim, P; Hwang, JY; Ha, JD; Ahn, SJ

> <Institution>
KOREA RESEARCH INSTITUTE OF CHEMICAL TECHNOLOGY

> <Link to Ligand in BindingDB>
http://www.bindingdb.org/bind/chemsearch/marvin/MolStructure.jsp?monomerid=243379

> <Link to Ligand-Target Pair in BindingDB>
http://www.bindingdb.org/jsp/dbsearch/PrimarySearch_ki.jsp?energyterm=kJ/mole&tag=pol&polymerid=5809&target=ALK+tyrosine+kinase+receptor&column=ki&startPg=0&Increment=50&submit=Search

> <Link to Ligand-Target Pair in BindingDB>
http://www.bindingdb.org/jsp/dbsearch/PrimarySearch_ki.jsp?energyterm=kJ/mole&tag=r21&monomerid=243379&enzyme=ALK+tyrosine+kinase+receptor&column=ki&startPg=0&Increment=50&submit=Search

> <Ligand HET ID in PDB>


> <PDB ID(s) for Ligand-Target Complex>


> <PubChem CID>
129048468

> <PubChem SID>
376221762

> <ChEBI ID of Ligand>


> <ChEMBL ID of Ligand>


> <DrugBank ID of Ligand>


> <IUPHAR_GRAC ID of Ligand>


> <KEGG ID of Ligand>


> <ZINC ID of Ligand>


> <Number of Protein Chains in Target (>1 implies a multichain complex)>
1

> <BindingDB Target Chain Sequence>
MGAIGLLWLLPLLLSTAAVGSGMGTGQRAGSPAAGPPLQPREPLSYSRLQRKSLAVDFVVPSLFRVYARDLLLPPSSSELKAGRPEARGSLALDCAPLLRLLGPAPGVSWTAGSPAPAEARTLSRVLKGGSVRKLRRAKQLVLELGEEAILEGCVGPPGEAAVGLLQFNLSELFSWWIRQGEGRLRIRLMPEKKASEVGREGRLSAAIRASQPRLLFQIFGTGHSSLESPTNMPSPSPDYFTWNLTWIMKDSFPFLSHRSRYGLECSFDFPCELEYSPPLHDLRNQSWSWRRIPSEEASQMDLLDGPGAERSKEMPRGSFLLLNTSADSKHTILSPWMRSSSEHCTLAVSVHRHLQPSGRYIAQLLPHNEAAREILLMPTPGKHGWTVLQGRIGRPDNPFRVALEYISSGNRSLSAVDFFALKNCSEGTSPGSKMALQSSFTCWNGTVLQLGQACDFHQDCAQGEDESQMCRKLPVGFYCNFEDGFCGWTQGTLSPHTPQWQVRTLKDARFQDHQDHALLLSTTDVPASESATVTSATFPAPIKSSPCELRMSWLIRGVLRGNVSLVLVENKTGKEQGRMVWHVAAYEGLSLWQWMVLPLLDVSDRFWLQMVAWWGQGSRAIVAFDNISISLDCYLTISGEDKILQNTAPKSRNLFERNPNKELKPGENSPRQTPIFDPTVHWLFTTCGASGPHGPTQAQCNNAYQNSNLSVEVGSEGPLKGIQIWKVPATDTYSISGYGAAGGKGGKNTMMRSHGVSVLGIFNLEKDDMLYILVGQQGEDACPSTNQLIQKVCIGENNVIEEEIRVNRSVHEWAGGGGGGGGATYVFKMKDGVPVPLIIAAGGGGRAYGAKTDTFHPERLENNSSVLGLNGNSGAAGGGGGWNDNTSLLWAGKSLQEGATGGHSCPQAMKKWGWETRGGFGGGGGGCSSGGGGGGYIGGNAASNNDPEMDGEDGVSFISPLGILYTPALKVMEGHGEVNIKHYLNCSHCEVDECHMDPESHKVICFCDHGTVLAEDGVSCIVSPTPEPHLPLSLILSVVTSALVAALVLAFSGIMIVYRRKHQELQAMQMELQSPEYKLSKLRTSTIMTDYNPNYCFAGKTSSISDLKEVPRKNITLIRGLGHGAFGEVYEGQVSGMPNDPSPLQVAVKTLPEVCSEQDELDFLMEALIISKFNHQNIVRCIGVSLQSLPRFILLELMAGGDLKSFLRETRPRPSQPSSLAMLDLLHVARDIACGCQYLEENHFIHRDIAARNCLLTCPGPGRVAKIGDFGMARDIYRASYYRKGGCAMLPVKWMPPEAFMEGIFTSKTDTWSFGVLLWEIFSLGYMPYPSKSNQEVLEFVTSGGRMDPPKNCPGPVYRIMTQCWQHQPEDRPNFAIILERIEYCTQDPDVINTALPIEYGPLVEEEEKVPVRPKDPEGVPPLLVSQQAKREEERSPAAPPPLPTTSSGKAAKKPTAAEISVRVPRGPAVEGGHVNMAFSQSNPPSELHKVHGSRNKPTSLWNPTYGSWFTEKPTKKNNPIAKKEPHDRGNLGLEGSCTVPPNVATGRLPGASLLLEPSSLTANMKEVPLFRLRHFPCGNVNYGYQQQGLPLEAATAPGAGHYEDTILKSKNSMNQPGP

> <PDB ID(s) of Target Chain>
2XB7,2XBA,3AOX,5FTO,5FTQ,6E0R,6EBW,6EDL,6MX8

> <UniProt (SwissProt) Recommended Name of Target Chain>
ALK tyrosine kinase receptor

> <UniProt (SwissProt) Entry Name of Target Chain>
ALK_HUMAN

> <UniProt (SwissProt) Primary ID of Target Chain>
Q9UM73

> <UniProt (SwissProt) Secondary ID(s) of Target Chain>
Q4ZFX9,Q53QQ6,Q53RZ4,Q59FI3,Q9Y4K6

> <UniProt (SwissProt) Alternative ID(s) of Target Chain>


> <UniProt (TrEMBL) Submitted Name of Target Chain>


> <UniProt (TrEMBL) Entry Name of Target Chain>


> <UniProt (TrEMBL) Primary ID of Target Chain>


> <UniProt (TrEMBL) Secondary ID(s) of Target Chain>


> <UniProt (TrEMBL) Alternative ID(s) of Target Chain>


$$$$
00206001.cdx
  Mrv0541 10181809492D          

 35 38  0  0  0  0            999 V2000
   -3.2151    1.9115    0.0000 C   0  0  0  0  0  0  0  0  0  0  0  0
   -3.2151    1.0865    0.0000 C   0  0  0  0  0  0  0  0  0  0  0  0
   -2.5006    0.6740    0.0000 C   0  0  0  0  0  0  0  0  0  0  0  0
   -1.7862    1.0865    0.0000 C   0  0  0  0  0  0  0  0  0  0  0  0
   -1.7862    1.9115    0.0000 C   0  0  0  0  0  0  0  0  0  0  0  0
   -2.5006    2.3240    0.0000 C   0  0  0  0  0  0  0  0  0  0  0  0
   -1.0717    0.6740    0.0000 N   0  0  0  0  0  0  0  0  0  0  0  0
   -0.3572    1.0865    0.0000 C   0  0  0  0  0  0  0  0  0  0  0  0
   -0.3572    1.9115    0.0000 C   0  0  0  0  0  0  0  0  0  0  0  0
   -1.0717    2.3240    0.0000 S   0  0  0  0  0  0  0  0  0  0  0  0
   -1.0717   -0.1510    0.0000 C   0  0  0  0  0  0  0  0  0  0  0  0
    0.3572    2.3240    0.0000 C   0  0  0  0  0  0  0  0  0  0  0  0
   -0.6592    3.0385    0.0000 O   0  0  0  0  0  0  0  0  0  0  0  0
   -1.6551    2.9074    0.0000 O   0  0  0  0  0  0  0  0  0  0  0  0
   -1.7862   -0.5635    0.0000 C   0  0  0  0  0  0  0  0  0  0  0  0
   -1.7862   -1.3885    0.0000 C   0  0  0  0  0  0  0  0  0  0  0  0
   -1.0717   -1.8010    0.0000 N   0  0  0  0  0  0  0  0  0  0  0  0
   -0.3572   -1.3885    0.0000 C   0  0  0  0  0  0  0  0  0  0  0  0
   -0.3572   -0.5635    0.0000 N   0  0  0  0  0  0  0  0  0  0  0  0
   -2.5006   -0.1510    0.0000 Cl  0  0  0  0  0  0  0  0  0  0  0  0
    0.3572   -1.8010    0.0000 N   0  0  0  0  0  0  0  0  0  0  0  0
    1.0717   -1.3885    0.0000 C   0  0  0  0  0  0  0  0  0  0  0  0
    1.7862   -1.8010    0.0000 C   0  0  0  0  0  0  0  0  0  0  0  0
    2.5006   -1.3885    0.0000 C   0  0  0  0  0  0  0  0  0  0  0  0
    2.5006   -0.5635    0.0000 C   0  0  0  0  0  0  0  0  0  0  0  0
    1.7862   -0.1510    0.0000 C   0  0  0  0  0  0  0  0  0  0  0  0
    1.0717   -0.5635    0.0000 C   0  0  0  0  0  0  0  0  0  0  0  0
    1.7862   -2.6260    0.0000 O   0  0  0  0  0  0  0  0  0  0  0  0
    2.5006   -3.0385    0.0000 C   0  0  0  0  0  0  0  0  0  0  0  0
    3.2151   -0.1510    0.0000 C   0  0  0  0  0  0  0  0  0  0  0  0
    3.2151    0.6740    0.0000 N   0  0  0  0  0  0  0  0  0  0  0  0
    2.5006    1.0865    0.0000 C   0  0  0  0  0  0  0  0  0  0  0  0
    1.7862    0.6740    0.0000 C   0  0  0  0  0  0  0  0  0  0  0  0
    1.0717    1.0865    0.0000 C   0  0  0  0  0  0  0  0  0  0  0  0
    1.7862    1.4990    0.0000 C   0  0  0  0  0  0  0  0  0  0  0  0
  1  2  4  0  0  0  0
  2  3  4  0  0  0  0
  3  4  4  0  0  0  0
  4  5  4  0  0  0  0
  5  6  4  0  0  0  0
  6  1  4  0  0  0  0
  4  7  1  0  0  0  0
  8  9  1  0  0  0  0
  9 10  1  0  0  0  0
 10  5  1  0  0  0  0
  7 11  1  0  0  0  0
  9 12  1  0  0  0  0
 10 13  2  0  0  0  0
 10 14  2  0  0  0  0
 11 15  4  0  0  0  0
 15 16  4  0  0  0  0
 16 17  4  0  0  0  0
 17 18  4  0  0  0  0
 18 19  4  0  0  0  0
 19 11  4  0  0  0  0
 15 20  1  0  0  0  0
 18 21  1  0  0  0  0
 21 22  1  0  0  0  0
 22 23  4  0  0  0  0
 23 24  4  0  0  0  0
 24 25  4  0  0  0  0
 25 26  4  0  0  0  0
 26 27  4  0  0  0  0
 27 22  4  0  0  0  0
 23 28  1  0  0  0  0
 28 29  1  0  0  0  0
 25 30  1  0  0  0  0
 30 31  1  0  0  0  0
 31 32  1  0  0  0  0
 32 33  1  0  0  0  0
 33 26  1  0  0  0  0
 33 34  1  0  0  0  0
 33 35  1  0  0  0  0
M  END
> <From>
www.bindingDB.org

> <BindingDB Reactant_set_id>
490382

> <Ligand InChI>
InChI=1S/C25H30ClN5O3S/c1-15(2)35(32,33)22-9-7-6-8-19(22)29-23-18(26)13-28-24(31-23)30-20-11-17-16(10-21(20)34-5)12-27-14-25(17,3)4/h6-11,13,15,27H,12,14H2,1-5H3,(H2,28,29,30,31)

> <Ligand InChI Key>
UTLBQFJPNJIMAQ-UHFFFAOYSA-N

> <BindingDB MonomerID>
243380

> <BindingDB Ligand Name>
5-chloro-N4-(2-(isopropylsulfonyl)phenyl)-N2-(7-methoxy-4,4-dimethyl-1,2,3,4-tetrahydroisoquinolin-6-yl)pyrimidine-2,4-diamine::US10053458, 12

> <Target Name Assigned by Curator or DataSource>
ALK tyrosine kinase receptor

> <Target Source Organism According to Curator or DataSource>
Homo sapiens

> <Ki (nM)>


> <IC50 (nM)>
<10.00

> <Kd (nM)>


> <EC50 (nM)>


> <kon (M-1-s-1)>


> <koff (s-1)>


> <pH>


> <Temp C>
25.00

> <Curation/DataSource>
US Patent

> <Article DOI>


> <PMID>


> <PubChem AID>


> <Patent Number>
US10053458

> <Authors>
Yun, CS; Kim, HR; Cho, SY; Jung, HJ; Lee, K; Chae, CH; Lee, CO; Park, CH; Kim, P; Hwang, JY; Ha, JD; Ahn, SJ

> <Institution>
KOREA RESEARCH INSTITUTE OF CHEMICAL TECHNOLOGY

> <Link to Ligand in BindingDB>
http://www.bindingdb.org/bind/chemsearch/marvin/MolStructure.jsp?monomerid=243380

> <Link to Ligand-Target Pair in BindingDB>
http://www.bindingdb.org/jsp/dbsearch/PrimarySearch_ki.jsp?energyterm=kJ/mole&tag=pol&polymerid=5809&target=ALK+tyrosine+kinase+receptor&column=ki&startPg=0&Increment=50&submit=Search

> <Link to Ligand-Target Pair in BindingDB>
http://www.bindingdb.org/jsp/dbsearch/PrimarySearch_ki.jsp?energyterm=kJ/mole&tag=r21&monomerid=243380&enzyme=ALK+tyrosine+kinase+receptor&column=ki&startPg=0&Increment=50&submit=Search

> <Ligand HET ID in PDB>


> <PDB ID(s) for Ligand-Target Complex>


> <PubChem CID>
129048499

> <PubChem SID>
376221763

> <ChEBI ID of Ligand>


> <ChEMBL ID of Ligand>


> <DrugBank ID of Ligand>


> <IUPHAR_GRAC ID of Ligand>


> <KEGG ID of Ligand>


> <ZINC ID of Ligand>


> <Number of Protein Chains in Target (>1 implies a multichain complex)>
1

> <BindingDB Target Chain Sequence>
MGAIGLLWLLPLLLSTAAVGSGMGTGQRAGSPAAGPPLQPREPLSYSRLQRKSLAVDFVVPSLFRVYARDLLLPPSSSELKAGRPEARGSLALDCAPLLRLLGPAPGVSWTAGSPAPAEARTLSRVLKGGSVRKLRRAKQLVLELGEEAILEGCVGPPGEAAVGLLQFNLSELFSWWIRQGEGRLRIRLMPEKKASEVGREGRLSAAIRASQPRLLFQIFGTGHSSLESPTNMPSPSPDYFTWNLTWIMKDSFPFLSHRSRYGLECSFDFPCELEYSPPLHDLRNQSWSWRRIPSEEASQMDLLDGPGAERSKEMPRGSFLLLNTSADSKHTILSPWMRSSSEHCTLAVSVHRHLQPSGRYIAQLLPHNEAAREILLMPTPGKHGWTVLQGRIGRPDNPFRVALEYISSGNRSLSAVDFFALKNCSEGTSPGSKMALQSSFTCWNGTVLQLGQACDFHQDCAQGEDESQMCRKLPVGFYCNFEDGFCGWTQGTLSPHTPQWQVRTLKDARFQDHQDHALLLSTTDVPASESATVTSATFPAPIKSSPCELRMSWLIRGVLRGNVSLVLVENKTGKEQGRMVWHVAAYEGLSLWQWMVLPLLDVSDRFWLQMVAWWGQGSRAIVAFDNISISLDCYLTISGEDKILQNTAPKSRNLFERNPNKELKPGENSPRQTPIFDPTVHWLFTTCGASGPHGPTQAQCNNAYQNSNLSVEVGSEGPLKGIQIWKVPATDTYSISGYGAAGGKGGKNTMMRSHGVSVLGIFNLEKDDMLYILVGQQGEDACPSTNQLIQKVCIGENNVIEEEIRVNRSVHEWAGGGGGGGGATYVFKMKDGVPVPLIIAAGGGGRAYGAKTDTFHPERLENNSSVLGLNGNSGAAGGGGGWNDNTSLLWAGKSLQEGATGGHSCPQAMKKWGWETRGGFGGGGGGCSSGGGGGGYIGGNAASNNDPEMDGEDGVSFISPLGILYTPALKVMEGHGEVNIKHYLNCSHCEVDECHMDPESHKVICFCDHGTVLAEDGVSCIVSPTPEPHLPLSLILSVVTSALVAALVLAFSGIMIVYRRKHQELQAMQMELQSPEYKLSKLRTSTIMTDYNPNYCFAGKTSSISDLKEVPRKNITLIRGLGHGAFGEVYEGQVSGMPNDPSPLQVAVKTLPEVCSEQDELDFLMEALIISKFNHQNIVRCIGVSLQSLPRFILLELMAGGDLKSFLRETRPRPSQPSSLAMLDLLHVARDIACGCQYLEENHFIHRDIAARNCLLTCPGPGRVAKIGDFGMARDIYRASYYRKGGCAMLPVKWMPPEAFMEGIFTSKTDTWSFGVLLWEIFSLGYMPYPSKSNQEVLEFVTSGGRMDPPKNCPGPVYRIMTQCWQHQPEDRPNFAIILERIEYCTQDPDVINTALPIEYGPLVEEEEKVPVRPKDPEGVPPLLVSQQAKREEERSPAAPPPLPTTSSGKAAKKPTAAEISVRVPRGPAVEGGHVNMAFSQSNPPSELHKVHGSRNKPTSLWNPTYGSWFTEKPTKKNNPIAKKEPHDRGNLGLEGSCTVPPNVATGRLPGASLLLEPSSLTANMKEVPLFRLRHFPCGNVNYGYQQQGLPLEAATAPGAGHYEDTILKSKNSMNQPGP

> <PDB ID(s) of Target Chain>
2XB7,2XBA,3AOX,5FTO,5FTQ,6E0R,6EBW,6EDL,6MX8

> <UniProt (SwissProt) Recommended Name of Target Chain>
ALK tyrosine kinase receptor

> <UniProt (SwissProt) Entry Name of Target Chain>
ALK_HUMAN

> <UniProt (SwissProt) Primary ID of Target Chain>
Q9UM73

> <UniProt (SwissProt) Secondary ID(s) of Target Chain>
Q4ZFX9,Q53QQ6,Q53RZ4,Q59FI3,Q9Y4K6

> <UniProt (SwissProt) Alternative ID(s) of Target Chain>


> <UniProt (TrEMBL) Submitted Name of Target Chain>


> <UniProt (TrEMBL) Entry Name of Target Chain>


> <UniProt (TrEMBL) Primary ID of Target Chain>


> <UniProt (TrEMBL) Secondary ID(s) of Target Chain>


> <UniProt (TrEMBL) Alternative ID(s) of Target Chain>


$$$$
00211001.cdx
  Mrv0541 10181809492D          

 43 47  0  0  0  0            999 V2000
   -1.8140   -3.9233    0.0000 C   0  0  0  0  0  0  0  0  0  0  0  0
   -2.0011   -3.1198    0.0000 C   0  0  0  0  0  0  0  0  0  0  0  0
   -1.3987   -2.5560    0.0000 C   0  0  0  0  0  0  0  0  0  0  0  0
   -0.6093   -2.7958    0.0000 C   0  0  0  0  0  0  0  0  0  0  0  0
   -0.4223   -3.5993    0.0000 C   0  0  0  0  0  0  0  0  0  0  0  0
   -1.0246   -4.1631    0.0000 C   0  0  0  0  0  0  0  0  0  0  0  0
   -0.0070   -2.2321    0.0000 N   0  0  0  0  0  0  0  0  0  0  0  0
    1.3435   -4.8824    0.0000 C   0  0  0  0  0  0  0  0  0  0  0  0
    1.1565   -4.0789    0.0000 C   0  0  0  0  0  0  0  0  0  0  0  0
    0.3671   -3.8391    0.0000 S   0  0  0  0  0  0  0  0  0  0  0  0
   -0.1940   -1.4286    0.0000 C   0  0  0  0  0  0  0  0  0  0  0  0
    1.7588   -3.5151    0.0000 C   0  0  0  0  0  0  0  0  0  0  0  0
    0.6069   -3.0497    0.0000 O   0  0  0  0  0  0  0  0  0  0  0  0
    0.1273   -4.6285    0.0000 O   0  0  0  0  0  0  0  0  0  0  0  0
   -0.9834   -1.1888    0.0000 C   0  0  0  0  0  0  0  0  0  0  0  0
   -1.1705   -0.3853    0.0000 C   0  0  0  0  0  0  0  0  0  0  0  0
   -0.5681    0.1785    0.0000 N   0  0  0  0  0  0  0  0  0  0  0  0
    0.2213   -0.0613    0.0000 C   0  0  0  0  0  0  0  0  0  0  0  0
    0.4083   -0.8648    0.0000 N   0  0  0  0  0  0  0  0  0  0  0  0
   -1.5858   -1.7525    0.0000 Cl  0  0  0  0  0  0  0  0  0  0  0  0
    0.8236    0.5024    0.0000 N   0  0  0  0  0  0  0  0  0  0  0  0
    0.6366    1.3060    0.0000 C   0  0  0  0  0  0  0  0  0  0  0  0
    1.2389    1.8697    0.0000 C   0  0  0  0  0  0  0  0  0  0  0  0
    1.0519    2.6732    0.0000 C   0  0  0  0  0  0  0  0  0  0  0  0
    0.2625    2.9130    0.0000 C   0  0  0  0  0  0  0  0  0  0  0  0
   -0.3399    2.3493    0.0000 C   0  0  0  0  0  0  0  0  0  0  0  0
   -0.1528    1.5457    0.0000 C   0  0  0  0  0  0  0  0  0  0  0  0
    2.0283    1.6299    0.0000 O   0  0  0  0  0  0  0  0  0  0  0  0
    2.6307    2.1937    0.0000 C   0  0  0  0  0  0  0  0  0  0  0  0
    0.0754    3.7165    0.0000 C   0  0  0  0  0  0  0  0  0  0  0  0
   -0.7139    3.9563    0.0000 N   0  0  0  0  0  0  0  0  0  0  0  0
   -1.3163    3.3925    0.0000 C   0  0  0  0  0  0  0  0  0  0  0  0
   -0.9010    4.7598    0.0000 C   0  0  0  0  0  0  0  0  0  0  0  0
   -0.2986    5.3235    0.0000 O   0  0  0  0  0  0  0  0  0  0  0  0
   -1.9394    2.7450    0.0000 C   0  0  0  0  0  0  0  0  0  0  0  0
   -1.1292    2.5890    0.0000 C   0  0  0  0  0  0  0  0  0  0  0  0
   -1.0272    1.7704    0.0000 C   0  0  0  0  0  0  0  0  0  0  0  0
   -1.7743    1.4203    0.0000 C   0  0  0  0  0  0  0  0  0  0  0  0
   -2.3380    2.0227    0.0000 C   0  0  0  0  0  0  0  0  0  0  0  0
   -1.6904    4.9996    0.0000 C   0  0  0  0  0  0  0  0  0  0  0  0
   -2.4798    5.2394    0.0000 F   0  0  0  0  0  0  0  0  0  0  0  0
   -1.4506    5.7890    0.0000 F   0  0  0  0  0  0  0  0  0  0  0  0
   -1.9301    4.2102    0.0000 F   0  0  0  0  0  0  0  0  0  0  0  0
  1  2  4  0  0  0  0
  2  3  4  0  0  0  0
  3  4  4  0  0  0  0
  4  5  4  0  0  0  0
  5  6  4  0  0  0  0
  6  1  4  0  0  0  0
  4  7  1  0  0  0  0
  8  9  1  0  0  0  0
  9 10  1  0  0  0  0
 10  5  1  0  0  0  0
  7 11  1  0  0  0  0
  9 12  1  0  0  0  0
 10 13  2  0  0  0  0
 10 14  2  0  0  0  0
 11 15  4  0  0  0  0
 15 16  4  0  0  0  0
 16 17  4  0  0  0  0
 17 18  4  0  0  0  0
 18 19  4  0  0  0  0
 19 11  4  0  0  0  0
 15 20  1  0  0  0  0
 18 21  1  0  0  0  0
 21 22  1  0  0  0  0
 22 23  4  0  0  0  0
 23 24  4  0  0  0  0
 24 25  4  0  0  0  0
 25 26  4  0  0  0  0
 26 27  4  0  0  0  0
 27 22  4  0  0  0  0
 23 28  1  0  0  0  0
 28 29  1  0  0  0  0
 25 30  1  0  0  0  0
 30 31  1  0  0  0  0
 31 32  1  0  0  0  0
 32 36  1  0  0  0  0
 36 26  1  0  0  0  0
 31 33  1  0  0  0  0
 33 34  2  0  0  0  0
 35 36  1  0  0  0  0
 36 37  1  0  0  0  0
 37 38  1  0  0  0  0
 38 39  1  0  0  0  0
 39 35  1  0  0  0  0
 33 40  1  0  0  0  0
 40 41  1  0  0  0  0
 40 42  1  0  0  0  0
 40 43  1  0  0  0  0
M  END
> <From>
www.bindingDB.org

> <BindingDB Reactant_set_id>
490384

> <Ligand InChI>
InChI=1S/C29H31ClF3N5O4S/c1-17(2)43(40,41)24-9-5-4-8-21(24)35-25-20(30)14-34-27(37-25)36-22-13-19-18(12-23(22)42-3)15-38(26(39)29(31,32)33)16-28(19)10-6-7-11-28/h4-5,8-9,12-14,17H,6-7,10-11,15-16H2,1-3H3,(H2,34,35,36,37)

> <Ligand InChI Key>
DSRGEMNENJQLMQ-UHFFFAOYSA-N

> <BindingDB MonomerID>
243381

> <BindingDB Ligand Name>
1-(6-(5-chloro-4-(2-(isopropylsulfonyl)phenylamino)pyrimidin-2-yl)amino-7-methoxy-1H-spiro[cyclopentane-1,4-isoquinoline]-2(3H)-yl)-2,2,2-trifluoroethane-1-one::US10053458, 13

> <Target Name Assigned by Curator or DataSource>
ALK tyrosine kinase receptor

> <Target Source Organism According to Curator or DataSource>
Homo sapiens

> <Ki (nM)>


> <IC50 (nM)>
<10.00

> <Kd (nM)>


> <EC50 (nM)>


> <kon (M-1-s-1)>


> <koff (s-1)>


> <pH>


> <Temp C>
25.00

> <Curation/DataSource>
US Patent

> <Article DOI>


> <PMID>


> <PubChem AID>


> <Patent Number>
US10053458

> <Authors>
Yun, CS; Kim, HR; Cho, SY; Jung, HJ; Lee, K; Chae, CH; Lee, CO; Park, CH; Kim, P; Hwang, JY; Ha, JD; Ahn, SJ

> <Institution>
KOREA RESEARCH INSTITUTE OF CHEMICAL TECHNOLOGY

> <Link to Ligand in BindingDB>
http://www.bindingdb.org/bind/chemsearch/marvin/MolStructure.jsp?monomerid=243381

> <Link to Ligand-Target Pair in BindingDB>
http://www.bindingdb.org/jsp/dbsearch/PrimarySearch_ki.jsp?energyterm=kJ/mole&tag=pol&polymerid=5809&target=ALK+tyrosine+kinase+receptor&column=ki&startPg=0&Increment=50&submit=Search

> <Link to Ligand-Target Pair in BindingDB>
http://www.bindingdb.org/jsp/dbsearch/PrimarySearch_ki.jsp?energyterm=kJ/mole&tag=r21&monomerid=243381&enzyme=ALK+tyrosine+kinase+receptor&column=ki&startPg=0&Increment=50&submit=Search

> <Ligand HET ID in PDB>


> <PDB ID(s) for Ligand-Target Complex>


> <PubChem CID>
129147980

> <PubChem SID>
376221764

> <ChEBI ID of Ligand>


> <ChEMBL ID of Ligand>


> <DrugBank ID of Ligand>


> <IUPHAR_GRAC ID of Ligand>


> <KEGG ID of Ligand>


> <ZINC ID of Ligand>


> <Number of Protein Chains in Target (>1 implies a multichain complex)>
1

> <BindingDB Target Chain Sequence>
MGAIGLLWLLPLLLSTAAVGSGMGTGQRAGSPAAGPPLQPREPLSYSRLQRKSLAVDFVVPSLFRVYARDLLLPPSSSELKAGRPEARGSLALDCAPLLRLLGPAPGVSWTAGSPAPAEARTLSRVLKGGSVRKLRRAKQLVLELGEEAILEGCVGPPGEAAVGLLQFNLSELFSWWIRQGEGRLRIRLMPEKKASEVGREGRLSAAIRASQPRLLFQIFGTGHSSLESPTNMPSPSPDYFTWNLTWIMKDSFPFLSHRSRYGLECSFDFPCELEYSPPLHDLRNQSWSWRRIPSEEASQMDLLDGPGAERSKEMPRGSFLLLNTSADSKHTILSPWMRSSSEHCTLAVSVHRHLQPSGRYIAQLLPHNEAAREILLMPTPGKHGWTVLQGRIGRPDNPFRVALEYISSGNRSLSAVDFFALKNCSEGTSPGSKMALQSSFTCWNGTVLQLGQACDFHQDCAQGEDESQMCRKLPVGFYCNFEDGFCGWTQGTLSPHTPQWQVRTLKDARFQDHQDHALLLSTTDVPASESATVTSATFPAPIKSSPCELRMSWLIRGVLRGNVSLVLVENKTGKEQGRMVWHVAAYEGLSLWQWMVLPLLDVSDRFWLQMVAWWGQGSRAIVAFDNISISLDCYLTISGEDKILQNTAPKSRNLFERNPNKELKPGENSPRQTPIFDPTVHWLFTTCGASGPHGPTQAQCNNAYQNSNLSVEVGSEGPLKGIQIWKVPATDTYSISGYGAAGGKGGKNTMMRSHGVSVLGIFNLEKDDMLYILVGQQGEDACPSTNQLIQKVCIGENNVIEEEIRVNRSVHEWAGGGGGGGGATYVFKMKDGVPVPLIIAAGGGGRAYGAKTDTFHPERLENNSSVLGLNGNSGAAGGGGGWNDNTSLLWAGKSLQEGATGGHSCPQAMKKWGWETRGGFGGGGGGCSSGGGGGGYIGGNAASNNDPEMDGEDGVSFISPLGILYTPALKVMEGHGEVNIKHYLNCSHCEVDECHMDPESHKVICFCDHGTVLAEDGVSCIVSPTPEPHLPLSLILSVVTSALVAALVLAFSGIMIVYRRKHQELQAMQMELQSPEYKLSKLRTSTIMTDYNPNYCFAGKTSSISDLKEVPRKNITLIRGLGHGAFGEVYEGQVSGMPNDPSPLQVAVKTLPEVCSEQDELDFLMEALIISKFNHQNIVRCIGVSLQSLPRFILLELMAGGDLKSFLRETRPRPSQPSSLAMLDLLHVARDIACGCQYLEENHFIHRDIAARNCLLTCPGPGRVAKIGDFGMARDIYRASYYRKGGCAMLPVKWMPPEAFMEGIFTSKTDTWSFGVLLWEIFSLGYMPYPSKSNQEVLEFVTSGGRMDPPKNCPGPVYRIMTQCWQHQPEDRPNFAIILERIEYCTQDPDVINTALPIEYGPLVEEEEKVPVRPKDPEGVPPLLVSQQAKREEERSPAAPPPLPTTSSGKAAKKPTAAEISVRVPRGPAVEGGHVNMAFSQSNPPSELHKVHGSRNKPTSLWNPTYGSWFTEKPTKKNNPIAKKEPHDRGNLGLEGSCTVPPNVATGRLPGASLLLEPSSLTANMKEVPLFRLRHFPCGNVNYGYQQQGLPLEAATAPGAGHYEDTILKSKNSMNQPGP

> <PDB ID(s) of Target Chain>
2XB7,2XBA,3AOX,5FTO,5FTQ,6E0R,6EBW,6EDL,6MX8

> <UniProt (SwissProt) Recommended Name of Target Chain>
ALK tyrosine kinase receptor

> <UniProt (SwissProt) Entry Name of Target Chain>
ALK_HUMAN

> <UniProt (SwissProt) Primary ID of Target Chain>
Q9UM73

> <UniProt (SwissProt) Secondary ID(s) of Target Chain>
Q4ZFX9,Q53QQ6,Q53RZ4,Q59FI3,Q9Y4K6

> <UniProt (SwissProt) Alternative ID(s) of Target Chain>


> <UniProt (TrEMBL) Submitted Name of Target Chain>


> <UniProt (TrEMBL) Entry Name of Target Chain>


> <UniProt (TrEMBL) Primary ID of Target Chain>


> <UniProt (TrEMBL) Secondary ID(s) of Target Chain>


> <UniProt (TrEMBL) Alternative ID(s) of Target Chain>


$$$$
00212001.cdx
  Mrv0541 10181809492D          

 37 41  0  0  0  0            999 V2000
   -3.2151    1.9115    0.0000 C   0  0  0  0  0  0  0  0  0  0  0  0
   -3.2151    1.0865    0.0000 C   0  0  0  0  0  0  0  0  0  0  0  0
   -2.5006    0.6740    0.0000 C   0  0  0  0  0  0  0  0  0  0  0  0
   -1.7862    1.0865    0.0000 C   0  0  0  0  0  0  0  0  0  0  0  0
   -1.7862    1.9115    0.0000 C   0  0  0  0  0  0  0  0  0  0  0  0
   -2.5006    2.3240    0.0000 C   0  0  0  0  0  0  0  0  0  0  0  0
   -1.0717    0.6740    0.0000 N   0  0  0  0  0  0  0  0  0  0  0  0
   -0.3572    1.0865    0.0000 C   0  0  0  0  0  0  0  0  0  0  0  0
   -0.3572    1.9115    0.0000 C   0  0  0  0  0  0  0  0  0  0  0  0
   -1.0717    2.3240    0.0000 S   0  0  0  0  0  0  0  0  0  0  0  0
   -1.0717   -0.1510    0.0000 C   0  0  0  0  0  0  0  0  0  0  0  0
    0.3572    2.3240    0.0000 C   0  0  0  0  0  0  0  0  0  0  0  0
   -0.6592    3.0385    0.0000 O   0  0  0  0  0  0  0  0  0  0  0  0
   -1.6551    2.9074    0.0000 O   0  0  0  0  0  0  0  0  0  0  0  0
   -1.7862   -0.5635    0.0000 C   0  0  0  0  0  0  0  0  0  0  0  0
   -1.7862   -1.3885    0.0000 C   0  0  0  0  0  0  0  0  0  0  0  0
   -1.0717   -1.8010    0.0000 N   0  0  0  0  0  0  0  0  0  0  0  0
   -0.3572   -1.3885    0.0000 C   0  0  0  0  0  0  0  0  0  0  0  0
   -0.3572   -0.5635    0.0000 N   0  0  0  0  0  0  0  0  0  0  0  0
   -2.5006   -0.1510    0.0000 Cl  0  0  0  0  0  0  0  0  0  0  0  0
    0.3572   -1.8010    0.0000 N   0  0  0  0  0  0  0  0  0  0  0  0
    1.0717   -1.3885    0.0000 C   0  0  0  0  0  0  0  0  0  0  0  0
    1.7862   -1.8010    0.0000 C   0  0  0  0  0  0  0  0  0  0  0  0
    2.5006   -1.3885    0.0000 C   0  0  0  0  0  0  0  0  0  0  0  0
    2.5006   -0.5635    0.0000 C   0  0  0  0  0  0  0  0  0  0  0  0
    1.7862   -0.1510    0.0000 C   0  0  0  0  0  0  0  0  0  0  0  0
    1.0717   -0.5635    0.0000 C   0  0  0  0  0  0  0  0  0  0  0  0
    1.7862   -2.6260    0.0000 O   0  0  0  0  0  0  0  0  0  0  0  0
    2.5006   -3.0385    0.0000 C   0  0  0  0  0  0  0  0  0  0  0  0
    3.2151   -0.1510    0.0000 C   0  0  0  0  0  0  0  0  0  0  0  0
    3.2151    0.6740    0.0000 N   0  0  0  0  0  0  0  0  0  0  0  0
    2.5006    1.0865    0.0000 C   0  0  0  0  0  0  0  0  0  0  0  0
    0.9612    0.6740    0.0000 C   0  0  0  0  0  0  0  0  0  0  0  0
    1.7862    0.6740    0.0000 C   0  0  0  0  0  0  0  0  0  0  0  0
    2.0411    1.4586    0.0000 C   0  0  0  0  0  0  0  0  0  0  0  0
    1.3737    1.9436    0.0000 C   0  0  0  0  0  0  0  0  0  0  0  0
    0.7062    1.4586    0.0000 C   0  0  0  0  0  0  0  0  0  0  0  0
  1  2  4  0  0  0  0
  2  3  4  0  0  0  0
  3  4  4  0  0  0  0
  4  5  4  0  0  0  0
  5  6  4  0  0  0  0
  6  1  4  0  0  0  0
  4  7  1  0  0  0  0
  8  9  1  0  0  0  0
  9 10  1  0  0  0  0
 10  5  1  0  0  0  0
  7 11  1  0  0  0  0
  9 12  1  0  0  0  0
 10 13  2  0  0  0  0
 10 14  2  0  0  0  0
 11 15  4  0  0  0  0
 15 16  4  0  0  0  0
 16 17  4  0  0  0  0
 17 18  4  0  0  0  0
 18 19  4  0  0  0  0
 19 11  4  0  0  0  0
 15 20  1  0  0  0  0
 18 21  1  0  0  0  0
 21 22  1  0  0  0  0
 22 23  4  0  0  0  0
 23 24  4  0  0  0  0
 24 25  4  0  0  0  0
 25 26  4  0  0  0  0
 26 27  4  0  0  0  0
 27 22  4  0  0  0  0
 23 28  1  0  0  0  0
 28 29  1  0  0  0  0
 25 30  1  0  0  0  0
 30 31  1  0  0  0  0
 31 32  1  0  0  0  0
 32 34  1  0  0  0  0
 34 26  1  0  0  0  0
 33 34  1  0  0  0  0
 34 35  1  0  0  0  0
 35 36  1  0  0  0  0
 36 37  1  0  0  0  0
 37 33  1  0  0  0  0
M  END
> <From>
www.bindingDB.org

> <BindingDB Reactant_set_id>
490386

> <Ligand InChI>
InChI=1S/C27H32ClN5O3S/c1-17(2)37(34,35)24-9-5-4-8-21(24)31-25-20(28)15-30-26(33-25)32-22-13-19-18(12-23(22)36-3)14-29-16-27(19)10-6-7-11-27/h4-5,8-9,12-13,15,17,29H,6-7,10-11,14,16H2,1-3H3,(H2,30,31,32,33)

> <Ligand InChI Key>
IGKXCHBECNDTQI-UHFFFAOYSA-N

> <BindingDB MonomerID>
243382

> <BindingDB Ligand Name>
5-chloro-N4-(2-(isopropylsulfonyl)phenyl)-N2-(7-methoxy-2,3-dihydro-1H-spiro[cyclopentane-1,4-isoquinoline]-6-yl)pyrimidine-2,4-diamine::US10053458, 14

> <Target Name Assigned by Curator or DataSource>
ALK tyrosine kinase receptor

> <Target Source Organism According to Curator or DataSource>
Homo sapiens

> <Ki (nM)>


> <IC50 (nM)>
 1.000

> <Kd (nM)>


> <EC50 (nM)>


> <kon (M-1-s-1)>


> <koff (s-1)>


> <pH>


> <Temp C>
25.00

> <Curation/DataSource>
US Patent

> <Article DOI>


> <PMID>


> <PubChem AID>


> <Patent Number>
US10053458

> <Authors>
Yun, CS; Kim, HR; Cho, SY; Jung, HJ; Lee, K; Chae, CH; Lee, CO; Park, CH; Kim, P; Hwang, JY; Ha, JD; Ahn, SJ

> <Institution>
KOREA RESEARCH INSTITUTE OF CHEMICAL TECHNOLOGY

> <Link to Ligand in BindingDB>
http://www.bindingdb.org/bind/chemsearch/marvin/MolStructure.jsp?monomerid=243382

> <Link to Ligand-Target Pair in BindingDB>
http://www.bindingdb.org/jsp/dbsearch/PrimarySearch_ki.jsp?energyterm=kJ/mole&tag=pol&polymerid=5809&target=ALK+tyrosine+kinase+receptor&column=ki&startPg=0&Increment=50&submit=Search

> <Link to Ligand-Target Pair in BindingDB>
http://www.bindingdb.org/jsp/dbsearch/PrimarySearch_ki.jsp?energyterm=kJ/mole&tag=r21&monomerid=243382&enzyme=ALK+tyrosine+kinase+receptor&column=ki&startPg=0&Increment=50&submit=Search

> <Ligand HET ID in PDB>


> <PDB ID(s) for Ligand-Target Complex>


> <PubChem CID>
129147981

> <PubChem SID>
376221765

> <ChEBI ID of Ligand>


> <ChEMBL ID of Ligand>


> <DrugBank ID of Ligand>


> <IUPHAR_GRAC ID of Ligand>


> <KEGG ID of Ligand>


> <ZINC ID of Ligand>


> <Number of Protein Chains in Target (>1 implies a multichain complex)>
1

> <BindingDB Target Chain Sequence>
MGAIGLLWLLPLLLSTAAVGSGMGTGQRAGSPAAGPPLQPREPLSYSRLQRKSLAVDFVVPSLFRVYARDLLLPPSSSELKAGRPEARGSLALDCAPLLRLLGPAPGVSWTAGSPAPAEARTLSRVLKGGSVRKLRRAKQLVLELGEEAILEGCVGPPGEAAVGLLQFNLSELFSWWIRQGEGRLRIRLMPEKKASEVGREGRLSAAIRASQPRLLFQIFGTGHSSLESPTNMPSPSPDYFTWNLTWIMKDSFPFLSHRSRYGLECSFDFPCELEYSPPLHDLRNQSWSWRRIPSEEASQMDLLDGPGAERSKEMPRGSFLLLNTSADSKHTILSPWMRSSSEHCTLAVSVHRHLQPSGRYIAQLLPHNEAAREILLMPTPGKHGWTVLQGRIGRPDNPFRVALEYISSGNRSLSAVDFFALKNCSEGTSPGSKMALQSSFTCWNGTVLQLGQACDFHQDCAQGEDESQMCRKLPVGFYCNFEDGFCGWTQGTLSPHTPQWQVRTLKDARFQDHQDHALLLSTTDVPASESATVTSATFPAPIKSSPCELRMSWLIRGVLRGNVSLVLVENKTGKEQGRMVWHVAAYEGLSLWQWMVLPLLDVSDRFWLQMVAWWGQGSRAIVAFDNISISLDCYLTISGEDKILQNTAPKSRNLFERNPNKELKPGENSPRQTPIFDPTVHWLFTTCGASGPHGPTQAQCNNAYQNSNLSVEVGSEGPLKGIQIWKVPATDTYSISGYGAAGGKGGKNTMMRSHGVSVLGIFNLEKDDMLYILVGQQGEDACPSTNQLIQKVCIGENNVIEEEIRVNRSVHEWAGGGGGGGGATYVFKMKDGVPVPLIIAAGGGGRAYGAKTDTFHPERLENNSSVLGLNGNSGAAGGGGGWNDNTSLLWAGKSLQEGATGGHSCPQAMKKWGWETRGGFGGGGGGCSSGGGGGGYIGGNAASNNDPEMDGEDGVSFISPLGILYTPALKVMEGHGEVNIKHYLNCSHCEVDECHMDPESHKVICFCDHGTVLAEDGVSCIVSPTPEPHLPLSLILSVVTSALVAALVLAFSGIMIVYRRKHQELQAMQMELQSPEYKLSKLRTSTIMTDYNPNYCFAGKTSSISDLKEVPRKNITLIRGLGHGAFGEVYEGQVSGMPNDPSPLQVAVKTLPEVCSEQDELDFLMEALIISKFNHQNIVRCIGVSLQSLPRFILLELMAGGDLKSFLRETRPRPSQPSSLAMLDLLHVARDIACGCQYLEENHFIHRDIAARNCLLTCPGPGRVAKIGDFGMARDIYRASYYRKGGCAMLPVKWMPPEAFMEGIFTSKTDTWSFGVLLWEIFSLGYMPYPSKSNQEVLEFVTSGGRMDPPKNCPGPVYRIMTQCWQHQPEDRPNFAIILERIEYCTQDPDVINTALPIEYGPLVEEEEKVPVRPKDPEGVPPLLVSQQAKREEERSPAAPPPLPTTSSGKAAKKPTAAEISVRVPRGPAVEGGHVNMAFSQSNPPSELHKVHGSRNKPTSLWNPTYGSWFTEKPTKKNNPIAKKEPHDRGNLGLEGSCTVPPNVATGRLPGASLLLEPSSLTANMKEVPLFRLRHFPCGNVNYGYQQQGLPLEAATAPGAGHYEDTILKSKNSMNQPGP

> <PDB ID(s) of Target Chain>
2XB7,2XBA,3AOX,5FTO,5FTQ,6E0R,6EBW,6EDL,6MX8

> <UniProt (SwissProt) Recommended Name of Target Chain>
ALK tyrosine kinase receptor

> <UniProt (SwissProt) Entry Name of Target Chain>
ALK_HUMAN

> <UniProt (SwissProt) Primary ID of Target Chain>
Q9UM73

> <UniProt (SwissProt) Secondary ID(s) of Target Chain>
Q4ZFX9,Q53QQ6,Q53RZ4,Q59FI3,Q9Y4K6

> <UniProt (SwissProt) Alternative ID(s) of Target Chain>


> <UniProt (TrEMBL) Submitted Name of Target Chain>


> <UniProt (TrEMBL) Entry Name of Target Chain>


> <UniProt (TrEMBL) Primary ID of Target Chain>


> <UniProt (TrEMBL) Secondary ID(s) of Target Chain>


> <UniProt (TrEMBL) Alternative ID(s) of Target Chain>


$$$$
00213001.cdx
  Mrv0541 10181809492D          

 44 48  0  0  0  0            999 V2000
   -1.9654   -3.8959    0.0000 C   0  0  0  0  0  0  0  0  0  0  0  0
   -2.1213   -3.0858    0.0000 C   0  0  0  0  0  0  0  0  0  0  0  0
   -1.4977   -2.5457    0.0000 C   0  0  0  0  0  0  0  0  0  0  0  0
   -0.7181   -2.8157    0.0000 C   0  0  0  0  0  0  0  0  0  0  0  0
   -0.5622   -3.6259    0.0000 C   0  0  0  0  0  0  0  0  0  0  0  0
   -1.1858   -4.1659    0.0000 C   0  0  0  0  0  0  0  0  0  0  0  0
   -0.0945   -2.2756    0.0000 N   0  0  0  0  0  0  0  0  0  0  0  0
    1.1528   -4.9761    0.0000 C   0  0  0  0  0  0  0  0  0  0  0  0
    0.9969   -4.1659    0.0000 C   0  0  0  0  0  0  0  0  0  0  0  0
    0.2174   -3.8959    0.0000 S   0  0  0  0  0  0  0  0  0  0  0  0
   -0.2504   -1.4655    0.0000 C   0  0  0  0  0  0  0  0  0  0  0  0
    1.6205   -3.6259    0.0000 C   0  0  0  0  0  0  0  0  0  0  0  0
    0.4874   -3.1164    0.0000 O   0  0  0  0  0  0  0  0  0  0  0  0
   -0.0527   -4.6755    0.0000 O   0  0  0  0  0  0  0  0  0  0  0  0
   -1.0299   -1.1955    0.0000 C   0  0  0  0  0  0  0  0  0  0  0  0
   -1.1858   -0.3853    0.0000 C   0  0  0  0  0  0  0  0  0  0  0  0
   -0.5622    0.1548    0.0000 N   0  0  0  0  0  0  0  0  0  0  0  0
    0.2174   -0.1153    0.0000 C   0  0  0  0  0  0  0  0  0  0  0  0
    0.3733   -0.9254    0.0000 N   0  0  0  0  0  0  0  0  0  0  0  0
   -1.6536   -1.7355    0.0000 Cl  0  0  0  0  0  0  0  0  0  0  0  0
    0.8410    0.4248    0.0000 N   0  0  0  0  0  0  0  0  0  0  0  0
    0.6851    1.2349    0.0000 C   0  0  0  0  0  0  0  0  0  0  0  0
    1.3087    1.7750    0.0000 C   0  0  0  0  0  0  0  0  0  0  0  0
    1.1528    2.5852    0.0000 C   0  0  0  0  0  0  0  0  0  0  0  0
    0.3733    2.8552    0.0000 C   0  0  0  0  0  0  0  0  0  0  0  0
   -0.2504    2.3151    0.0000 C   0  0  0  0  0  0  0  0  0  0  0  0
   -0.0945    1.5050    0.0000 C   0  0  0  0  0  0  0  0  0  0  0  0
    2.0883    1.5050    0.0000 O   0  0  0  0  0  0  0  0  0  0  0  0
    2.7119    2.0451    0.0000 C   0  0  0  0  0  0  0  0  0  0  0  0
    0.2174    3.6653    0.0000 C   0  0  0  0  0  0  0  0  0  0  0  0
   -0.5622    3.9354    0.0000 N   0  0  0  0  0  0  0  0  0  0  0  0
   -1.1858    3.3953    0.0000 C   0  0  0  0  0  0  0  0  0  0  0  0
   -1.0299    2.5852    0.0000 C   0  0  0  0  0  0  0  0  0  0  0  0
   -0.7181    4.7455    0.0000 C   0  0  0  0  0  0  0  0  0  0  0  0
   -0.0945    5.2856    0.0000 O   0  0  0  0  0  0  0  0  0  0  0  0
   -0.8740    1.7750    0.0000 C   0  0  0  0  0  0  0  0  0  0  0  0
   -1.4977    1.2349    0.0000 C   0  0  0  0  0  0  0  0  0  0  0  0
   -2.2772    1.5050    0.0000 C   0  0  0  0  0  0  0  0  0  0  0  0
   -2.4331    2.3151    0.0000 C   0  0  0  0  0  0  0  0  0  0  0  0
   -1.8095    2.8552    0.0000 C   0  0  0  0  0  0  0  0  0  0  0  0
   -1.4977    5.0156    0.0000 C   0  0  0  0  0  0  0  0  0  0  0  0
   -2.2772    5.2856    0.0000 F   0  0  0  0  0  0  0  0  0  0  0  0
   -1.2276    5.7951    0.0000 F   0  0  0  0  0  0  0  0  0  0  0  0
   -1.7677    4.2360    0.0000 F   0  0  0  0  0  0  0  0  0  0  0  0
  1  2  4  0  0  0  0
  2  3  4  0  0  0  0
  3  4  4  0  0  0  0
  4  5  4  0  0  0  0
  5  6  4  0  0  0  0
  6  1  4  0  0  0  0
  4  7  1  0  0  0  0
  8  9  1  0  0  0  0
  9 10  1  0  0  0  0
 10  5  1  0  0  0  0
  7 11  1  0  0  0  0
  9 12  1  0  0  0  0
 10 13  2  0  0  0  0
 10 14  2  0  0  0  0
 11 15  4  0  0  0  0
 15 16  4  0  0  0  0
 16 17  4  0  0  0  0
 17 18  4  0  0  0  0
 18 19  4  0  0  0  0
 19 11  4  0  0  0  0
 15 20  1  0  0  0  0
 18 21  1  0  0  0  0
 21 22  1  0  0  0  0
 22 23  4  0  0  0  0
 23 24  4  0  0  0  0
 24 25  4  0  0  0  0
 25 26  4  0  0  0  0
 26 27  4  0  0  0  0
 27 22  4  0  0  0  0
 23 28  1  0  0  0  0
 28 29  1  0  0  0  0
 25 30  1  0  0  0  0
 30 31  1  0  0  0  0
 31 32  1  0  0  0  0
 32 33  1  0  0  0  0
 33 26  1  0  0  0  0
 31 34  1  0  0  0  0
 34 35  2  0  0  0  0
 33 36  1  0  0  0  0
 36 37  1  0  0  0  0
 37 38  1  0  0  0  0
 38 39  1  0  0  0  0
 39 40  1  0  0  0  0
 40 33  1  0  0  0  0
 34 41  1  0  0  0  0
 41 42  1  0  0  0  0
 41 43  1  0  0  0  0
 41 44  1  0  0  0  0
M  END
> <From>
www.bindingDB.org

> <BindingDB Reactant_set_id>
490388

> <Ligand InChI>
InChI=1S/C30H33ClF3N5O4S/c1-18(2)44(41,42)25-10-6-5-9-22(25)36-26-21(31)15-35-28(38-26)37-23-14-20-19(13-24(23)43-3)16-39(27(40)30(32,33)34)17-29(20)11-7-4-8-12-29/h5-6,9-10,13-15,18H,4,7-8,11-12,16-17H2,1-3H3,(H2,35,36,37,38)

> <Ligand InChI Key>
CHBINYTXMZMORE-UHFFFAOYSA-N

> <BindingDB MonomerID>
243383

> <BindingDB Ligand Name>
1-(6-(5-chloro-4-(2-(isopropylsulfonyl)phenylamino)pyrimidin-2-yl)amino-7-methoxy-1H-spiro[cyclohexane-1,4-isoquinoline]-2(3H)-yl)-2,2,2-trifluoroethane-1-one::US10053458, 15

> <Target Name Assigned by Curator or DataSource>
ALK tyrosine kinase receptor

> <Target Source Organism According to Curator or DataSource>
Homo sapiens

> <Ki (nM)>


> <IC50 (nM)>
<10.00

> <Kd (nM)>


> <EC50 (nM)>


> <kon (M-1-s-1)>


> <koff (s-1)>


> <pH>


> <Temp C>
25.00

> <Curation/DataSource>
US Patent

> <Article DOI>


> <PMID>


> <PubChem AID>


> <Patent Number>
US10053458

> <Authors>
Yun, CS; Kim, HR; Cho, SY; Jung, HJ; Lee, K; Chae, CH; Lee, CO; Park, CH; Kim, P; Hwang, JY; Ha, JD; Ahn, SJ

> <Institution>
KOREA RESEARCH INSTITUTE OF CHEMICAL TECHNOLOGY

> <Link to Ligand in BindingDB>
http://www.bindingdb.org/bind/chemsearch/marvin/MolStructure.jsp?monomerid=243383

> <Link to Ligand-Target Pair in BindingDB>
http://www.bindingdb.org/jsp/dbsearch/PrimarySearch_ki.jsp?energyterm=kJ/mole&tag=pol&polymerid=5809&target=ALK+tyrosine+kinase+receptor&column=ki&startPg=0&Increment=50&submit=Search

> <Link to Ligand-Target Pair in BindingDB>
http://www.bindingdb.org/jsp/dbsearch/PrimarySearch_ki.jsp?energyterm=kJ/mole&tag=r21&monomerid=243383&enzyme=ALK+tyrosine+kinase+receptor&column=ki&startPg=0&Increment=50&submit=Search

> <Ligand HET ID in PDB>


> <PDB ID(s) for Ligand-Target Complex>


> <PubChem CID>
129147982

> <PubChem SID>
376221766

> <ChEBI ID of Ligand>


> <ChEMBL ID of Ligand>


> <DrugBank ID of Ligand>


> <IUPHAR_GRAC ID of Ligand>


> <KEGG ID of Ligand>


> <ZINC ID of Ligand>


> <Number of Protein Chains in Target (>1 implies a multichain complex)>
1

> <BindingDB Target Chain Sequence>
MGAIGLLWLLPLLLSTAAVGSGMGTGQRAGSPAAGPPLQPREPLSYSRLQRKSLAVDFVVPSLFRVYARDLLLPPSSSELKAGRPEARGSLALDCAPLLRLLGPAPGVSWTAGSPAPAEARTLSRVLKGGSVRKLRRAKQLVLELGEEAILEGCVGPPGEAAVGLLQFNLSELFSWWIRQGEGRLRIRLMPEKKASEVGREGRLSAAIRASQPRLLFQIFGTGHSSLESPTNMPSPSPDYFTWNLTWIMKDSFPFLSHRSRYGLECSFDFPCELEYSPPLHDLRNQSWSWRRIPSEEASQMDLLDGPGAERSKEMPRGSFLLLNTSADSKHTILSPWMRSSSEHCTLAVSVHRHLQPSGRYIAQLLPHNEAAREILLMPTPGKHGWTVLQGRIGRPDNPFRVALEYISSGNRSLSAVDFFALKNCSEGTSPGSKMALQSSFTCWNGTVLQLGQACDFHQDCAQGEDESQMCRKLPVGFYCNFEDGFCGWTQGTLSPHTPQWQVRTLKDARFQDHQDHALLLSTTDVPASESATVTSATFPAPIKSSPCELRMSWLIRGVLRGNVSLVLVENKTGKEQGRMVWHVAAYEGLSLWQWMVLPLLDVSDRFWLQMVAWWGQGSRAIVAFDNISISLDCYLTISGEDKILQNTAPKSRNLFERNPNKELKPGENSPRQTPIFDPTVHWLFTTCGASGPHGPTQAQCNNAYQNSNLSVEVGSEGPLKGIQIWKVPATDTYSISGYGAAGGKGGKNTMMRSHGVSVLGIFNLEKDDMLYILVGQQGEDACPSTNQLIQKVCIGENNVIEEEIRVNRSVHEWAGGGGGGGGATYVFKMKDGVPVPLIIAAGGGGRAYGAKTDTFHPERLENNSSVLGLNGNSGAAGGGGGWNDNTSLLWAGKSLQEGATGGHSCPQAMKKWGWETRGGFGGGGGGCSSGGGGGGYIGGNAASNNDPEMDGEDGVSFISPLGILYTPALKVMEGHGEVNIKHYLNCSHCEVDECHMDPESHKVICFCDHGTVLAEDGVSCIVSPTPEPHLPLSLILSVVTSALVAALVLAFSGIMIVYRRKHQELQAMQMELQSPEYKLSKLRTSTIMTDYNPNYCFAGKTSSISDLKEVPRKNITLIRGLGHGAFGEVYEGQVSGMPNDPSPLQVAVKTLPEVCSEQDELDFLMEALIISKFNHQNIVRCIGVSLQSLPRFILLELMAGGDLKSFLRETRPRPSQPSSLAMLDLLHVARDIACGCQYLEENHFIHRDIAARNCLLTCPGPGRVAKIGDFGMARDIYRASYYRKGGCAMLPVKWMPPEAFMEGIFTSKTDTWSFGVLLWEIFSLGYMPYPSKSNQEVLEFVTSGGRMDPPKNCPGPVYRIMTQCWQHQPEDRPNFAIILERIEYCTQDPDVINTALPIEYGPLVEEEEKVPVRPKDPEGVPPLLVSQQAKREEERSPAAPPPLPTTSSGKAAKKPTAAEISVRVPRGPAVEGGHVNMAFSQSNPPSELHKVHGSRNKPTSLWNPTYGSWFTEKPTKKNNPIAKKEPHDRGNLGLEGSCTVPPNVATGRLPGASLLLEPSSLTANMKEVPLFRLRHFPCGNVNYGYQQQGLPLEAATAPGAGHYEDTILKSKNSMNQPGP

> <PDB ID(s) of Target Chain>
2XB7,2XBA,3AOX,5FTO,5FTQ,6E0R,6EBW,6EDL,6MX8

> <UniProt (SwissProt) Recommended Name of Target Chain>
ALK tyrosine kinase receptor

> <UniProt (SwissProt) Entry Name of Target Chain>
ALK_HUMAN

> <UniProt (SwissProt) Primary ID of Target Chain>
Q9UM73

> <UniProt (SwissProt) Secondary ID(s) of Target Chain>
Q4ZFX9,Q53QQ6,Q53RZ4,Q59FI3,Q9Y4K6

> <UniProt (SwissProt) Alternative ID(s) of Target Chain>


> <UniProt (TrEMBL) Submitted Name of Target Chain>


> <UniProt (TrEMBL) Entry Name of Target Chain>


> <UniProt (TrEMBL) Primary ID of Target Chain>


> <UniProt (TrEMBL) Secondary ID(s) of Target Chain>


> <UniProt (TrEMBL) Alternative ID(s) of Target Chain>


$$$$
00214001.cdx
  Mrv0541 10181809492D          

 38 42  0  0  0  0            999 V2000
   -3.2151    1.9115    0.0000 C   0  0  0  0  0  0  0  0  0  0  0  0
   -3.2151    1.0865    0.0000 C   0  0  0  0  0  0  0  0  0  0  0  0
   -2.5006    0.6740    0.0000 C   0  0  0  0  0  0  0  0  0  0  0  0
   -1.7862    1.0865    0.0000 C   0  0  0  0  0  0  0  0  0  0  0  0
   -1.7862    1.9115    0.0000 C   0  0  0  0  0  0  0  0  0  0  0  0
   -2.5006    2.3240    0.0000 C   0  0  0  0  0  0  0  0  0  0  0  0
   -1.0717    0.6740    0.0000 N   0  0  0  0  0  0  0  0  0  0  0  0
   -0.3572    1.0865    0.0000 C   0  0  0  0  0  0  0  0  0  0  0  0
   -0.3572    1.9115    0.0000 C   0  0  0  0  0  0  0  0  0  0  0  0
   -1.0717    2.3240    0.0000 S   0  0  0  0  0  0  0  0  0  0  0  0
   -1.0717   -0.1510    0.0000 C   0  0  0  0  0  0  0  0  0  0  0  0
    0.3572    2.3240    0.0000 C   0  0  0  0  0  0  0  0  0  0  0  0
   -0.6592    3.0385    0.0000 O   0  0  0  0  0  0  0  0  0  0  0  0
   -1.6551    2.9074    0.0000 O   0  0  0  0  0  0  0  0  0  0  0  0
   -1.7862   -0.5635    0.0000 C   0  0  0  0  0  0  0  0  0  0  0  0
   -1.7862   -1.3885    0.0000 C   0  0  0  0  0  0  0  0  0  0  0  0
   -1.0717   -1.8010    0.0000 N   0  0  0  0  0  0  0  0  0  0  0  0
   -0.3572   -1.3885    0.0000 C   0  0  0  0  0  0  0  0  0  0  0  0
   -0.3572   -0.5635    0.0000 N   0  0  0  0  0  0  0  0  0  0  0  0
   -2.5006   -0.1510    0.0000 Cl  0  0  0  0  0  0  0  0  0  0  0  0
    0.3572   -1.8010    0.0000 N   0  0  0  0  0  0  0  0  0  0  0  0
    1.0717   -1.3885    0.0000 C   0  0  0  0  0  0  0  0  0  0  0  0
    1.7862   -1.8010    0.0000 C   0  0  0  0  0  0  0  0  0  0  0  0
    2.5006   -1.3885    0.0000 C   0  0  0  0  0  0  0  0  0  0  0  0
    2.5006   -0.5635    0.0000 C   0  0  0  0  0  0  0  0  0  0  0  0
    1.7862   -0.1510    0.0000 C   0  0  0  0  0  0  0  0  0  0  0  0
    1.0717   -0.5635    0.0000 C   0  0  0  0  0  0  0  0  0  0  0  0
    1.7862   -2.6260    0.0000 O   0  0  0  0  0  0  0  0  0  0  0  0
    2.5006   -3.0385    0.0000 C   0  0  0  0  0  0  0  0  0  0  0  0
    3.2151   -0.1510    0.0000 C   0  0  0  0  0  0  0  0  0  0  0  0
    3.2151    0.6740    0.0000 N   0  0  0  0  0  0  0  0  0  0  0  0
    2.5006    1.0865    0.0000 C   0  0  0  0  0  0  0  0  0  0  0  0
    1.7862    0.6740    0.0000 C   0  0  0  0  0  0  0  0  0  0  0  0
    1.7862    1.4990    0.0000 C   0  0  0  0  0  0  0  0  0  0  0  0
    1.0717    1.9115    0.0000 C   0  0  0  0  0  0  0  0  0  0  0  0
    0.3572    1.4990    0.0000 C   0  0  0  0  0  0  0  0  0  0  0  0
    0.3572    0.6740    0.0000 C   0  0  0  0  0  0  0  0  0  0  0  0
    1.0717    0.2615    0.0000 C   0  0  0  0  0  0  0  0  0  0  0  0
  1  2  4  0  0  0  0
  2  3  4  0  0  0  0
  3  4  4  0  0  0  0
  4  5  4  0  0  0  0
  5  6  4  0  0  0  0
  6  1  4  0  0  0  0
  4  7  1  0  0  0  0
  8  9  1  0  0  0  0
  9 10  1  0  0  0  0
 10  5  1  0  0  0  0
  7 11  1  0  0  0  0
  9 12  1  0  0  0  0
 10 13  2  0  0  0  0
 10 14  2  0  0  0  0
 11 15  4  0  0  0  0
 15 16  4  0  0  0  0
 16 17  4  0  0  0  0
 17 18  4  0  0  0  0
 18 19  4  0  0  0  0
 19 11  4  0  0  0  0
 15 20  1  0  0  0  0
 18 21  1  0  0  0  0
 21 22  1  0  0  0  0
 22 23  4  0  0  0  0
 23 24  4  0  0  0  0
 24 25  4  0  0  0  0
 25 26  4  0  0  0  0
 26 27  4  0  0  0  0
 27 22  4  0  0  0  0
 23 28  1  0  0  0  0
 28 29  1  0  0  0  0
 25 30  1  0  0  0  0
 30 31  1  0  0  0  0
 31 32  1  0  0  0  0
 32 33  1  0  0  0  0
 33 26  1  0  0  0  0
 33 34  1  0  0  0  0
 34 35  1  0  0  0  0
 35 36  1  0  0  0  0
 36 37  1  0  0  0  0
 37 38  1  0  0  0  0
 38 33  1  0  0  0  0
M  END
> <From>
www.bindingDB.org

> <BindingDB Reactant_set_id>
490390

> <Ligand InChI>
InChI=1S/C28H34ClN5O3S/c1-18(2)38(35,36)25-10-6-5-9-22(25)32-26-21(29)16-31-27(34-26)33-23-14-20-19(13-24(23)37-3)15-30-17-28(20)11-7-4-8-12-28/h5-6,9-10,13-14,16,18,30H,4,7-8,11-12,15,17H2,1-3H3,(H2,31,32,33,34)

> <Ligand InChI Key>
IPXGQCIYQPTPRK-UHFFFAOYSA-N

> <BindingDB MonomerID>
243384

> <BindingDB Ligand Name>
5-chloro-N4-(2-(isopropylsulfonyl)phenyl)-N2-(7-methoxy-2,3-dihydro-1H-spiro[cyclohexane-1,4-isoquinoline]-6-yl)pyrimidine-2,4-diamine::US10053458, 16

> <Target Name Assigned by Curator or DataSource>
ALK tyrosine kinase receptor

> <Target Source Organism According to Curator or DataSource>
Homo sapiens

> <Ki (nM)>


> <IC50 (nM)>
<10.00

> <Kd (nM)>


> <EC50 (nM)>


> <kon (M-1-s-1)>


> <koff (s-1)>


> <pH>


> <Temp C>
25.00

> <Curation/DataSource>
US Patent

> <Article DOI>


> <PMID>


> <PubChem AID>


> <Patent Number>
US10053458

> <Authors>
Yun, CS; Kim, HR; Cho, SY; Jung, HJ; Lee, K; Chae, CH; Lee, CO; Park, CH; Kim, P; Hwang, JY; Ha, JD; Ahn, SJ

> <Institution>
KOREA RESEARCH INSTITUTE OF CHEMICAL TECHNOLOGY

> <Link to Ligand in BindingDB>
http://www.bindingdb.org/bind/chemsearch/marvin/MolStructure.jsp?monomerid=243384

> <Link to Ligand-Target Pair in BindingDB>
http://www.bindingdb.org/jsp/dbsearch/PrimarySearch_ki.jsp?energyterm=kJ/mole&tag=pol&polymerid=5809&target=ALK+tyrosine+kinase+receptor&column=ki&startPg=0&Increment=50&submit=Search

> <Link to Ligand-Target Pair in BindingDB>
http://www.bindingdb.org/jsp/dbsearch/PrimarySearch_ki.jsp?energyterm=kJ/mole&tag=r21&monomerid=243384&enzyme=ALK+tyrosine+kinase+receptor&column=ki&startPg=0&Increment=50&submit=Search

> <Ligand HET ID in PDB>


> <PDB ID(s) for Ligand-Target Complex>


> <PubChem CID>
129147983

> <PubChem SID>
376221767

> <ChEBI ID of Ligand>


> <ChEMBL ID of Ligand>


> <DrugBank ID of Ligand>


> <IUPHAR_GRAC ID of Ligand>


> <KEGG ID of Ligand>


> <ZINC ID of Ligand>


> <Number of Protein Chains in Target (>1 implies a multichain complex)>
1

> <BindingDB Target Chain Sequence>
MGAIGLLWLLPLLLSTAAVGSGMGTGQRAGSPAAGPPLQPREPLSYSRLQRKSLAVDFVVPSLFRVYARDLLLPPSSSELKAGRPEARGSLALDCAPLLRLLGPAPGVSWTAGSPAPAEARTLSRVLKGGSVRKLRRAKQLVLELGEEAILEGCVGPPGEAAVGLLQFNLSELFSWWIRQGEGRLRIRLMPEKKASEVGREGRLSAAIRASQPRLLFQIFGTGHSSLESPTNMPSPSPDYFTWNLTWIMKDSFPFLSHRSRYGLECSFDFPCELEYSPPLHDLRNQSWSWRRIPSEEASQMDLLDGPGAERSKEMPRGSFLLLNTSADSKHTILSPWMRSSSEHCTLAVSVHRHLQPSGRYIAQLLPHNEAAREILLMPTPGKHGWTVLQGRIGRPDNPFRVALEYISSGNRSLSAVDFFALKNCSEGTSPGSKMALQSSFTCWNGTVLQLGQACDFHQDCAQGEDESQMCRKLPVGFYCNFEDGFCGWTQGTLSPHTPQWQVRTLKDARFQDHQDHALLLSTTDVPASESATVTSATFPAPIKSSPCELRMSWLIRGVLRGNVSLVLVENKTGKEQGRMVWHVAAYEGLSLWQWMVLPLLDVSDRFWLQMVAWWGQGSRAIVAFDNISISLDCYLTISGEDKILQNTAPKSRNLFERNPNKELKPGENSPRQTPIFDPTVHWLFTTCGASGPHGPTQAQCNNAYQNSNLSVEVGSEGPLKGIQIWKVPATDTYSISGYGAAGGKGGKNTMMRSHGVSVLGIFNLEKDDMLYILVGQQGEDACPSTNQLIQKVCIGENNVIEEEIRVNRSVHEWAGGGGGGGGATYVFKMKDGVPVPLIIAAGGGGRAYGAKTDTFHPERLENNSSVLGLNGNSGAAGGGGGWNDNTSLLWAGKSLQEGATGGHSCPQAMKKWGWETRGGFGGGGGGCSSGGGGGGYIGGNAASNNDPEMDGEDGVSFISPLGILYTPALKVMEGHGEVNIKHYLNCSHCEVDECHMDPESHKVICFCDHGTVLAEDGVSCIVSPTPEPHLPLSLILSVVTSALVAALVLAFSGIMIVYRRKHQELQAMQMELQSPEYKLSKLRTSTIMTDYNPNYCFAGKTSSISDLKEVPRKNITLIRGLGHGAFGEVYEGQVSGMPNDPSPLQVAVKTLPEVCSEQDELDFLMEALIISKFNHQNIVRCIGVSLQSLPRFILLELMAGGDLKSFLRETRPRPSQPSSLAMLDLLHVARDIACGCQYLEENHFIHRDIAARNCLLTCPGPGRVAKIGDFGMARDIYRASYYRKGGCAMLPVKWMPPEAFMEGIFTSKTDTWSFGVLLWEIFSLGYMPYPSKSNQEVLEFVTSGGRMDPPKNCPGPVYRIMTQCWQHQPEDRPNFAIILERIEYCTQDPDVINTALPIEYGPLVEEEEKVPVRPKDPEGVPPLLVSQQAKREEERSPAAPPPLPTTSSGKAAKKPTAAEISVRVPRGPAVEGGHVNMAFSQSNPPSELHKVHGSRNKPTSLWNPTYGSWFTEKPTKKNNPIAKKEPHDRGNLGLEGSCTVPPNVATGRLPGASLLLEPSSLTANMKEVPLFRLRHFPCGNVNYGYQQQGLPLEAATAPGAGHYEDTILKSKNSMNQPGP

> <PDB ID(s) of Target Chain>
2XB7,2XBA,3AOX,5FTO,5FTQ,6E0R,6EBW,6EDL,6MX8

> <UniProt (SwissProt) Recommended Name of Target Chain>
ALK tyrosine kinase receptor

> <UniProt (SwissProt) Entry Name of Target Chain>
ALK_HUMAN

> <UniProt (SwissProt) Primary ID of Target Chain>
Q9UM73

> <UniProt (SwissProt) Secondary ID(s) of Target Chain>
Q4ZFX9,Q53QQ6,Q53RZ4,Q59FI3,Q9Y4K6

> <UniProt (SwissProt) Alternative ID(s) of Target Chain>


> <UniProt (TrEMBL) Submitted Name of Target Chain>


> <UniProt (TrEMBL) Entry Name of Target Chain>


> <UniProt (TrEMBL) Primary ID of Target Chain>


> <UniProt (TrEMBL) Secondary ID(s) of Target Chain>


> <UniProt (TrEMBL) Alternative ID(s) of Target Chain>


$$$$
00219001.cdx
  Mrv0541 10181809492D          

 41 44  0  0  0  0            999 V2000
   -2.2696    4.7099    0.0000 C   0  0  0  0  0  0  0  0  0  0  0  0
   -1.5551    4.2974    0.0000 C   0  0  0  0  0  0  0  0  0  0  0  0
   -1.5551    3.4724    0.0000 C   0  0  0  0  0  0  0  0  0  0  0  0
   -2.2696    3.0599    0.0000 C   0  0  0  0  0  0  0  0  0  0  0  0
   -2.9840    3.4724    0.0000 C   0  0  0  0  0  0  0  0  0  0  0  0
   -2.9840    4.2974    0.0000 C   0  0  0  0  0  0  0  0  0  0  0  0
   -2.2696    2.2349    0.0000 N   0  0  0  0  0  0  0  0  0  0  0  0
   -5.1274    3.0599    0.0000 C   0  0  0  0  0  0  0  0  0  0  0  0
   -4.4130    2.6474    0.0000 C   0  0  0  0  0  0  0  0  0  0  0  0
   -3.6985    3.0599    0.0000 S   0  0  0  0  0  0  0  0  0  0  0  0
   -1.5551    1.8224    0.0000 C   0  0  0  0  0  0  0  0  0  0  0  0
   -4.4130    1.8224    0.0000 C   0  0  0  0  0  0  0  0  0  0  0  0
   -3.2860    2.3455    0.0000 O   0  0  0  0  0  0  0  0  0  0  0  0
   -4.1110    3.7744    0.0000 O   0  0  0  0  0  0  0  0  0  0  0  0
   -0.8406    2.2349    0.0000 C   0  0  0  0  0  0  0  0  0  0  0  0
   -0.1261    1.8224    0.0000 C   0  0  0  0  0  0  0  0  0  0  0  0
   -0.1261    0.9974    0.0000 N   0  0  0  0  0  0  0  0  0  0  0  0
   -0.8406    0.5849    0.0000 C   0  0  0  0  0  0  0  0  0  0  0  0
   -1.5551    0.9974    0.0000 N   0  0  0  0  0  0  0  0  0  0  0  0
   -0.8406    3.0599    0.0000 Cl  0  0  0  0  0  0  0  0  0  0  0  0
   -0.8406   -0.2401    0.0000 N   0  0  0  0  0  0  0  0  0  0  0  0
   -0.1261   -0.6526    0.0000 C   0  0  0  0  0  0  0  0  0  0  0  0
   -0.1261   -1.4776    0.0000 C   0  0  0  0  0  0  0  0  0  0  0  0
    0.5883   -1.8901    0.0000 C   0  0  0  0  0  0  0  0  0  0  0  0
    1.3028   -1.4776    0.0000 C   0  0  0  0  0  0  0  0  0  0  0  0
    1.3028   -0.6526    0.0000 C   0  0  0  0  0  0  0  0  0  0  0  0
    0.5883   -0.2401    0.0000 C   0  0  0  0  0  0  0  0  0  0  0  0
   -0.8406   -1.8901    0.0000 O   0  0  0  0  0  0  0  0  0  0  0  0
   -0.8406   -2.7151    0.0000 C   0  0  0  0  0  0  0  0  0  0  0  0
    2.0173   -1.8901    0.0000 C   0  0  0  0  0  0  0  0  0  0  0  0
    2.7317   -1.4776    0.0000 N   0  0  0  0  0  0  0  0  0  0  0  0
    2.7317   -0.6526    0.0000 C   0  0  0  0  0  0  0  0  0  0  0  0
    2.0173   -0.2401    0.0000 C   0  0  0  0  0  0  0  0  0  0  0  0
   -0.1261   -3.1276    0.0000 C   0  0  0  0  0  0  0  0  0  0  0  0
   -1.5551   -3.1276    0.0000 C   0  0  0  0  0  0  0  0  0  0  0  0
    3.4462   -1.8901    0.0000 C   0  0  0  0  0  0  0  0  0  0  0  0
    3.4462   -2.7151    0.0000 O   0  0  0  0  0  0  0  0  0  0  0  0
    4.1607   -1.4776    0.0000 C   0  0  0  0  0  0  0  0  0  0  0  0
    4.8751   -1.0651    0.0000 F   0  0  0  0  0  0  0  0  0  0  0  0
    4.5732   -2.1920    0.0000 F   0  0  0  0  0  0  0  0  0  0  0  0
    3.7482   -0.7631    0.0000 F   0  0  0  0  0  0  0  0  0  0  0  0
  1  2  4  0  0  0  0
  2  3  4  0  0  0  0
  3  4  4  0  0  0  0
  4  5  4  0  0  0  0
  5  6  4  0  0  0  0
  6  1  4  0  0  0  0
  4  7  1  0  0  0  0
  8  9  1  0  0  0  0
  9 10  1  0  0  0  0
 10  5  1  0  0  0  0
  7 11  1  0  0  0  0
  9 12  1  0  0  0  0
 10 13  2  0  0  0  0
 10 14  2  0  0  0  0
 11 15  4  0  0  0  0
 15 16  4  0  0  0  0
 16 17  4  0  0  0  0
 17 18  4  0  0  0  0
 18 19  4  0  0  0  0
 19 11  4  0  0  0  0
 15 20  1  0  0  0  0
 18 21  1  0  0  0  0
 21 22  1  0  0  0  0
 22 23  4  0  0  0  0
 23 24  4  0  0  0  0
 24 25  4  0  0  0  0
 25 26  4  0  0  0  0
 26 27  4  0  0  0  0
 27 22  4  0  0  0  0
 23 28  1  0  0  0  0
 28 29  1  0  0  0  0
 25 30  1  0  0  0  0
 30 31  1  0  0  0  0
 31 32  1  0  0  0  0
 32 33  1  0  0  0  0
 33 26  1  0  0  0  0
 29 34  1  0  0  0  0
 29 35  1  0  0  0  0
 31 36  1  0  0  0  0
 36 37  2  0  0  0  0
 36 38  1  0  0  0  0
 38 39  1  0  0  0  0
 38 40  1  0  0  0  0
 38 41  1  0  0  0  0
M  END
> <From>
www.bindingDB.org

> <BindingDB Reactant_set_id>
490392

> <Ligand InChI>
InChI=1S/C27H29ClF3N5O4S/c1-15(2)40-22-12-18-14-36(25(37)27(29,30)31)10-9-17(18)11-21(22)34-26-32-13-19(28)24(35-26)33-20-7-5-6-8-23(20)41(38,39)16(3)4/h5-8,11-13,15-16H,9-10,14H2,1-4H3,(H2,32,33,34,35)

> <Ligand InChI Key>
LXUNSKCBDZXCOD-UHFFFAOYSA-N

> <BindingDB MonomerID>
243385

> <BindingDB Ligand Name>
1-(6-(5-chloro-4-(2-(isopropylsulfonyl)phenylamino)pyrimidin-2-yl)amino-7-isopropoxy-3,4-dihydroisoquinolin-2(1H)-yl)-2,2,2-trifluoroethane-1-one::US10053458, 17

> <Target Name Assigned by Curator or DataSource>
ALK tyrosine kinase receptor

> <Target Source Organism According to Curator or DataSource>
Homo sapiens

> <Ki (nM)>


> <IC50 (nM)>
<10.00

> <Kd (nM)>


> <EC50 (nM)>


> <kon (M-1-s-1)>


> <koff (s-1)>


> <pH>


> <Temp C>
25.00

> <Curation/DataSource>
US Patent

> <Article DOI>


> <PMID>


> <PubChem AID>


> <Patent Number>
US10053458

> <Authors>
Yun, CS; Kim, HR; Cho, SY; Jung, HJ; Lee, K; Chae, CH; Lee, CO; Park, CH; Kim, P; Hwang, JY; Ha, JD; Ahn, SJ

> <Institution>
KOREA RESEARCH INSTITUTE OF CHEMICAL TECHNOLOGY

> <Link to Ligand in BindingDB>
http://www.bindingdb.org/bind/chemsearch/marvin/MolStructure.jsp?monomerid=243385

> <Link to Ligand-Target Pair in BindingDB>
http://www.bindingdb.org/jsp/dbsearch/PrimarySearch_ki.jsp?energyterm=kJ/mole&tag=pol&polymerid=5809&target=ALK+tyrosine+kinase+receptor&column=ki&startPg=0&Increment=50&submit=Search

> <Link to Ligand-Target Pair in BindingDB>
http://www.bindingdb.org/jsp/dbsearch/PrimarySearch_ki.jsp?energyterm=kJ/mole&tag=r21&monomerid=243385&enzyme=ALK+tyrosine+kinase+receptor&column=ki&startPg=0&Increment=50&submit=Search

> <Ligand HET ID in PDB>


> <PDB ID(s) for Ligand-Target Complex>


> <PubChem CID>
129048514

> <PubChem SID>
376221768

> <ChEBI ID of Ligand>


> <ChEMBL ID of Ligand>


> <DrugBank ID of Ligand>


> <IUPHAR_GRAC ID of Ligand>


> <KEGG ID of Ligand>


> <ZINC ID of Ligand>


> <Number of Protein Chains in Target (>1 implies a multichain complex)>
1

> <BindingDB Target Chain Sequence>
MGAIGLLWLLPLLLSTAAVGSGMGTGQRAGSPAAGPPLQPREPLSYSRLQRKSLAVDFVVPSLFRVYARDLLLPPSSSELKAGRPEARGSLALDCAPLLRLLGPAPGVSWTAGSPAPAEARTLSRVLKGGSVRKLRRAKQLVLELGEEAILEGCVGPPGEAAVGLLQFNLSELFSWWIRQGEGRLRIRLMPEKKASEVGREGRLSAAIRASQPRLLFQIFGTGHSSLESPTNMPSPSPDYFTWNLTWIMKDSFPFLSHRSRYGLECSFDFPCELEYSPPLHDLRNQSWSWRRIPSEEASQMDLLDGPGAERSKEMPRGSFLLLNTSADSKHTILSPWMRSSSEHCTLAVSVHRHLQPSGRYIAQLLPHNEAAREILLMPTPGKHGWTVLQGRIGRPDNPFRVALEYISSGNRSLSAVDFFALKNCSEGTSPGSKMALQSSFTCWNGTVLQLGQACDFHQDCAQGEDESQMCRKLPVGFYCNFEDGFCGWTQGTLSPHTPQWQVRTLKDARFQDHQDHALLLSTTDVPASESATVTSATFPAPIKSSPCELRMSWLIRGVLRGNVSLVLVENKTGKEQGRMVWHVAAYEGLSLWQWMVLPLLDVSDRFWLQMVAWWGQGSRAIVAFDNISISLDCYLTISGEDKILQNTAPKSRNLFERNPNKELKPGENSPRQTPIFDPTVHWLFTTCGASGPHGPTQAQCNNAYQNSNLSVEVGSEGPLKGIQIWKVPATDTYSISGYGAAGGKGGKNTMMRSHGVSVLGIFNLEKDDMLYILVGQQGEDACPSTNQLIQKVCIGENNVIEEEIRVNRSVHEWAGGGGGGGGATYVFKMKDGVPVPLIIAAGGGGRAYGAKTDTFHPERLENNSSVLGLNGNSGAAGGGGGWNDNTSLLWAGKSLQEGATGGHSCPQAMKKWGWETRGGFGGGGGGCSSGGGGGGYIGGNAASNNDPEMDGEDGVSFISPLGILYTPALKVMEGHGEVNIKHYLNCSHCEVDECHMDPESHKVICFCDHGTVLAEDGVSCIVSPTPEPHLPLSLILSVVTSALVAALVLAFSGIMIVYRRKHQELQAMQMELQSPEYKLSKLRTSTIMTDYNPNYCFAGKTSSISDLKEVPRKNITLIRGLGHGAFGEVYEGQVSGMPNDPSPLQVAVKTLPEVCSEQDELDFLMEALIISKFNHQNIVRCIGVSLQSLPRFILLELMAGGDLKSFLRETRPRPSQPSSLAMLDLLHVARDIACGCQYLEENHFIHRDIAARNCLLTCPGPGRVAKIGDFGMARDIYRASYYRKGGCAMLPVKWMPPEAFMEGIFTSKTDTWSFGVLLWEIFSLGYMPYPSKSNQEVLEFVTSGGRMDPPKNCPGPVYRIMTQCWQHQPEDRPNFAIILERIEYCTQDPDVINTALPIEYGPLVEEEEKVPVRPKDPEGVPPLLVSQQAKREEERSPAAPPPLPTTSSGKAAKKPTAAEISVRVPRGPAVEGGHVNMAFSQSNPPSELHKVHGSRNKPTSLWNPTYGSWFTEKPTKKNNPIAKKEPHDRGNLGLEGSCTVPPNVATGRLPGASLLLEPSSLTANMKEVPLFRLRHFPCGNVNYGYQQQGLPLEAATAPGAGHYEDTILKSKNSMNQPGP

> <PDB ID(s) of Target Chain>
2XB7,2XBA,3AOX,5FTO,5FTQ,6E0R,6EBW,6EDL,6MX8

> <UniProt (SwissProt) Recommended Name of Target Chain>
ALK tyrosine kinase receptor

> <UniProt (SwissProt) Entry Name of Target Chain>
ALK_HUMAN

> <UniProt (SwissProt) Primary ID of Target Chain>
Q9UM73

> <UniProt (SwissProt) Secondary ID(s) of Target Chain>
Q4ZFX9,Q53QQ6,Q53RZ4,Q59FI3,Q9Y4K6

> <UniProt (SwissProt) Alternative ID(s) of Target Chain>


> <UniProt (TrEMBL) Submitted Name of Target Chain>


> <UniProt (TrEMBL) Entry Name of Target Chain>


> <UniProt (TrEMBL) Primary ID of Target Chain>


> <UniProt (TrEMBL) Secondary ID(s) of Target Chain>


> <UniProt (TrEMBL) Alternative ID(s) of Target Chain>


$$$$
00220001.cdx
  Mrv0541 10181809492D          

 35 38  0  0  0  0            999 V2000
   -3.2151    2.3240    0.0000 C   0  0  0  0  0  0  0  0  0  0  0  0
   -3.2151    1.4990    0.0000 C   0  0  0  0  0  0  0  0  0  0  0  0
   -2.5006    1.0865    0.0000 C   0  0  0  0  0  0  0  0  0  0  0  0
   -1.7862    1.4990    0.0000 C   0  0  0  0  0  0  0  0  0  0  0  0
   -1.7862    2.3240    0.0000 C   0  0  0  0  0  0  0  0  0  0  0  0
   -2.5006    2.7365    0.0000 C   0  0  0  0  0  0  0  0  0  0  0  0
   -1.0717    1.0865    0.0000 N   0  0  0  0  0  0  0  0  0  0  0  0
   -0.3572    1.4990    0.0000 C   0  0  0  0  0  0  0  0  0  0  0  0
   -0.3572    2.3240    0.0000 C   0  0  0  0  0  0  0  0  0  0  0  0
   -1.0717    2.7365    0.0000 S   0  0  0  0  0  0  0  0  0  0  0  0
   -1.0717    0.2615    0.0000 C   0  0  0  0  0  0  0  0  0  0  0  0
    0.3572    2.7365    0.0000 C   0  0  0  0  0  0  0  0  0  0  0  0
   -0.6592    3.4510    0.0000 O   0  0  0  0  0  0  0  0  0  0  0  0
   -1.6551    3.3199    0.0000 O   0  0  0  0  0  0  0  0  0  0  0  0
   -1.7862   -0.1510    0.0000 C   0  0  0  0  0  0  0  0  0  0  0  0
   -1.7862   -0.9760    0.0000 C   0  0  0  0  0  0  0  0  0  0  0  0
   -1.0717   -1.3885    0.0000 N   0  0  0  0  0  0  0  0  0  0  0  0
   -0.3572   -0.9760    0.0000 C   0  0  0  0  0  0  0  0  0  0  0  0
   -0.3572   -0.1510    0.0000 N   0  0  0  0  0  0  0  0  0  0  0  0
   -2.5006    0.2615    0.0000 Cl  0  0  0  0  0  0  0  0  0  0  0  0
    0.3572   -1.3885    0.0000 N   0  0  0  0  0  0  0  0  0  0  0  0
    1.0717   -0.9760    0.0000 C   0  0  0  0  0  0  0  0  0  0  0  0
    1.7862   -1.3885    0.0000 C   0  0  0  0  0  0  0  0  0  0  0  0
    2.5006   -0.9760    0.0000 C   0  0  0  0  0  0  0  0  0  0  0  0
    2.5006   -0.1510    0.0000 C   0  0  0  0  0  0  0  0  0  0  0  0
    1.7862    0.2615    0.0000 C   0  0  0  0  0  0  0  0  0  0  0  0
    1.0717   -0.1510    0.0000 C   0  0  0  0  0  0  0  0  0  0  0  0
    1.7862   -2.2135    0.0000 O   0  0  0  0  0  0  0  0  0  0  0  0
    2.5006   -2.6260    0.0000 C   0  0  0  0  0  0  0  0  0  0  0  0
    3.2151    0.2615    0.0000 C   0  0  0  0  0  0  0  0  0  0  0  0
    3.2151    1.0865    0.0000 N   0  0  0  0  0  0  0  0  0  0  0  0
    2.5006    1.4990    0.0000 C   0  0  0  0  0  0  0  0  0  0  0  0
    1.7862    1.0865    0.0000 C   0  0  0  0  0  0  0  0  0  0  0  0
    2.5006   -3.4510    0.0000 C   0  0  0  0  0  0  0  0  0  0  0  0
    3.2151   -2.2135    0.0000 C   0  0  0  0  0  0  0  0  0  0  0  0
  1  2  4  0  0  0  0
  2  3  4  0  0  0  0
  3  4  4  0  0  0  0
  4  5  4  0  0  0  0
  5  6  4  0  0  0  0
  6  1  4  0  0  0  0
  4  7  1  0  0  0  0
  8  9  1  0  0  0  0
  9 10  1  0  0  0  0
 10  5  1  0  0  0  0
  7 11  1  0  0  0  0
  9 12  1  0  0  0  0
 10 13  2  0  0  0  0
 10 14  2  0  0  0  0
 11 15  4  0  0  0  0
 15 16  4  0  0  0  0
 16 17  4  0  0  0  0
 17 18  4  0  0  0  0
 18 19  4  0  0  0  0
 19 11  4  0  0  0  0
 15 20  1  0  0  0  0
 18 21  1  0  0  0  0
 21 22  1  0  0  0  0
 22 23  4  0  0  0  0
 23 24  4  0  0  0  0
 24 25  4  0  0  0  0
 25 26  4  0  0  0  0
 26 27  4  0  0  0  0
 27 22  4  0  0  0  0
 23 28  1  0  0  0  0
 28 29  1  0  0  0  0
 25 30  1  0  0  0  0
 30 31  1  0  0  0  0
 31 32  1  0  0  0  0
 32 33  1  0  0  0  0
 33 26  1  0  0  0  0
 29 34  1  0  0  0  0
 29 35  1  0  0  0  0
M  END
> <From>
www.bindingDB.org

> <BindingDB Reactant_set_id>
490394

> <Ligand InChI>
InChI=1S/C25H30ClN5O3S/c1-15(2)34-22-12-18-13-27-10-9-17(18)11-21(22)30-25-28-14-19(26)24(31-25)29-20-7-5-6-8-23(20)35(32,33)16(3)4/h5-8,11-12,14-16,27H,9-10,13H2,1-4H3,(H2,28,29,30,31)

> <Ligand InChI Key>
LJBRDZYUSKWUHC-UHFFFAOYSA-N

> <BindingDB MonomerID>
243386

> <BindingDB Ligand Name>
5-chloro-N4-(2-(isopropylsulfonyl)phenyl)-N2-(7-isopropoxy-1,2,3,4-tetrahydroisoquinolin-6-yl)pyrimidine-2,4-diamine::US10053458, 18

> <Target Name Assigned by Curator or DataSource>
ALK tyrosine kinase receptor

> <Target Source Organism According to Curator or DataSource>
Homo sapiens

> <Ki (nM)>


> <IC50 (nM)>
 0.210

> <Kd (nM)>


> <EC50 (nM)>


> <kon (M-1-s-1)>


> <koff (s-1)>


> <pH>


> <Temp C>
25.00

> <Curation/DataSource>
US Patent

> <Article DOI>


> <PMID>


> <PubChem AID>


> <Patent Number>
US10053458

> <Authors>
Yun, CS; Kim, HR; Cho, SY; Jung, HJ; Lee, K; Chae, CH; Lee, CO; Park, CH; Kim, P; Hwang, JY; Ha, JD; Ahn, SJ

> <Institution>
KOREA RESEARCH INSTITUTE OF CHEMICAL TECHNOLOGY

> <Link to Ligand in BindingDB>
http://www.bindingdb.org/bind/chemsearch/marvin/MolStructure.jsp?monomerid=243386

> <Link to Ligand-Target Pair in BindingDB>
http://www.bindingdb.org/jsp/dbsearch/PrimarySearch_ki.jsp?energyterm=kJ/mole&tag=pol&polymerid=5809&target=ALK+tyrosine+kinase+receptor&column=ki&startPg=0&Increment=50&submit=Search

> <Link to Ligand-Target Pair in BindingDB>
http://www.bindingdb.org/jsp/dbsearch/PrimarySearch_ki.jsp?energyterm=kJ/mole&tag=r21&monomerid=243386&enzyme=ALK+tyrosine+kinase+receptor&column=ki&startPg=0&Increment=50&submit=Search

> <Ligand HET ID in PDB>


> <PDB ID(s) for Ligand-Target Complex>


> <PubChem CID>
102593972

> <PubChem SID>
376221769

> <ChEBI ID of Ligand>


> <ChEMBL ID of Ligand>


> <DrugBank ID of Ligand>


> <IUPHAR_GRAC ID of Ligand>


> <KEGG ID of Ligand>


> <ZINC ID of Ligand>


> <Number of Protein Chains in Target (>1 implies a multichain complex)>
1

> <BindingDB Target Chain Sequence>
MGAIGLLWLLPLLLSTAAVGSGMGTGQRAGSPAAGPPLQPREPLSYSRLQRKSLAVDFVVPSLFRVYARDLLLPPSSSELKAGRPEARGSLALDCAPLLRLLGPAPGVSWTAGSPAPAEARTLSRVLKGGSVRKLRRAKQLVLELGEEAILEGCVGPPGEAAVGLLQFNLSELFSWWIRQGEGRLRIRLMPEKKASEVGREGRLSAAIRASQPRLLFQIFGTGHSSLESPTNMPSPSPDYFTWNLTWIMKDSFPFLSHRSRYGLECSFDFPCELEYSPPLHDLRNQSWSWRRIPSEEASQMDLLDGPGAERSKEMPRGSFLLLNTSADSKHTILSPWMRSSSEHCTLAVSVHRHLQPSGRYIAQLLPHNEAAREILLMPTPGKHGWTVLQGRIGRPDNPFRVALEYISSGNRSLSAVDFFALKNCSEGTSPGSKMALQSSFTCWNGTVLQLGQACDFHQDCAQGEDESQMCRKLPVGFYCNFEDGFCGWTQGTLSPHTPQWQVRTLKDARFQDHQDHALLLSTTDVPASESATVTSATFPAPIKSSPCELRMSWLIRGVLRGNVSLVLVENKTGKEQGRMVWHVAAYEGLSLWQWMVLPLLDVSDRFWLQMVAWWGQGSRAIVAFDNISISLDCYLTISGEDKILQNTAPKSRNLFERNPNKELKPGENSPRQTPIFDPTVHWLFTTCGASGPHGPTQAQCNNAYQNSNLSVEVGSEGPLKGIQIWKVPATDTYSISGYGAAGGKGGKNTMMRSHGVSVLGIFNLEKDDMLYILVGQQGEDACPSTNQLIQKVCIGENNVIEEEIRVNRSVHEWAGGGGGGGGATYVFKMKDGVPVPLIIAAGGGGRAYGAKTDTFHPERLENNSSVLGLNGNSGAAGGGGGWNDNTSLLWAGKSLQEGATGGHSCPQAMKKWGWETRGGFGGGGGGCSSGGGGGGYIGGNAASNNDPEMDGEDGVSFISPLGILYTPALKVMEGHGEVNIKHYLNCSHCEVDECHMDPESHKVICFCDHGTVLAEDGVSCIVSPTPEPHLPLSLILSVVTSALVAALVLAFSGIMIVYRRKHQELQAMQMELQSPEYKLSKLRTSTIMTDYNPNYCFAGKTSSISDLKEVPRKNITLIRGLGHGAFGEVYEGQVSGMPNDPSPLQVAVKTLPEVCSEQDELDFLMEALIISKFNHQNIVRCIGVSLQSLPRFILLELMAGGDLKSFLRETRPRPSQPSSLAMLDLLHVARDIACGCQYLEENHFIHRDIAARNCLLTCPGPGRVAKIGDFGMARDIYRASYYRKGGCAMLPVKWMPPEAFMEGIFTSKTDTWSFGVLLWEIFSLGYMPYPSKSNQEVLEFVTSGGRMDPPKNCPGPVYRIMTQCWQHQPEDRPNFAIILERIEYCTQDPDVINTALPIEYGPLVEEEEKVPVRPKDPEGVPPLLVSQQAKREEERSPAAPPPLPTTSSGKAAKKPTAAEISVRVPRGPAVEGGHVNMAFSQSNPPSELHKVHGSRNKPTSLWNPTYGSWFTEKPTKKNNPIAKKEPHDRGNLGLEGSCTVPPNVATGRLPGASLLLEPSSLTANMKEVPLFRLRHFPCGNVNYGYQQQGLPLEAATAPGAGHYEDTILKSKNSMNQPGP

> <PDB ID(s) of Target Chain>
2XB7,2XBA,3AOX,5FTO,5FTQ,6E0R,6EBW,6EDL,6MX8

> <UniProt (SwissProt) Recommended Name of Target Chain>
ALK tyrosine kinase receptor

> <UniProt (SwissProt) Entry Name of Target Chain>
ALK_HUMAN

> <UniProt (SwissProt) Primary ID of Target Chain>
Q9UM73

> <UniProt (SwissProt) Secondary ID(s) of Target Chain>
Q4ZFX9,Q53QQ6,Q53RZ4,Q59FI3,Q9Y4K6

> <UniProt (SwissProt) Alternative ID(s) of Target Chain>


> <UniProt (TrEMBL) Submitted Name of Target Chain>


> <UniProt (TrEMBL) Entry Name of Target Chain>


> <UniProt (TrEMBL) Primary ID of Target Chain>


> <UniProt (TrEMBL) Secondary ID(s) of Target Chain>


> <UniProt (TrEMBL) Alternative ID(s) of Target Chain>


$$$$
00221001.cdx
  Mrv0541 10181809492D          

 42 45  0  0  0  0            999 V2000
   -2.3006    4.8692    0.0000 C   0  0  0  0  0  0  0  0  0  0  0  0
   -1.5861    4.4567    0.0000 C   0  0  0  0  0  0  0  0  0  0  0  0
   -1.5861    3.6317    0.0000 C   0  0  0  0  0  0  0  0  0  0  0  0
   -2.3006    3.2192    0.0000 C   0  0  0  0  0  0  0  0  0  0  0  0
   -3.0151    3.6317    0.0000 C   0  0  0  0  0  0  0  0  0  0  0  0
   -3.0151    4.4567    0.0000 C   0  0  0  0  0  0  0  0  0  0  0  0
   -2.3006    2.3942    0.0000 N   0  0  0  0  0  0  0  0  0  0  0  0
   -5.1585    3.2192    0.0000 C   0  0  0  0  0  0  0  0  0  0  0  0
   -4.4440    2.8067    0.0000 C   0  0  0  0  0  0  0  0  0  0  0  0
   -3.7295    3.2192    0.0000 S   0  0  0  0  0  0  0  0  0  0  0  0
   -1.5861    1.9817    0.0000 C   0  0  0  0  0  0  0  0  0  0  0  0
   -4.4440    1.9817    0.0000 C   0  0  0  0  0  0  0  0  0  0  0  0
   -3.3170    2.5048    0.0000 O   0  0  0  0  0  0  0  0  0  0  0  0
   -4.1420    3.9337    0.0000 O   0  0  0  0  0  0  0  0  0  0  0  0
   -0.8716    2.3942    0.0000 C   0  0  0  0  0  0  0  0  0  0  0  0
   -0.1572    1.9817    0.0000 C   0  0  0  0  0  0  0  0  0  0  0  0
   -0.1572    1.1567    0.0000 N   0  0  0  0  0  0  0  0  0  0  0  0
   -0.8716    0.7442    0.0000 C   0  0  0  0  0  0  0  0  0  0  0  0
   -1.5861    1.1567    0.0000 N   0  0  0  0  0  0  0  0  0  0  0  0
   -0.8716    3.2192    0.0000 Cl  0  0  0  0  0  0  0  0  0  0  0  0
   -0.8716   -0.0808    0.0000 N   0  0  0  0  0  0  0  0  0  0  0  0
   -0.1572   -0.4933    0.0000 C   0  0  0  0  0  0  0  0  0  0  0  0
   -0.1572   -1.3183    0.0000 C   0  0  0  0  0  0  0  0  0  0  0  0
    0.5573   -1.7308    0.0000 C   0  0  0  0  0  0  0  0  0  0  0  0
    1.2718   -1.3183    0.0000 C   0  0  0  0  0  0  0  0  0  0  0  0
    1.2718   -0.4933    0.0000 C   0  0  0  0  0  0  0  0  0  0  0  0
    0.5573   -0.0808    0.0000 C   0  0  0  0  0  0  0  0  0  0  0  0
   -0.8716   -1.7308    0.0000 O   0  0  0  0  0  0  0  0  0  0  0  0
   -0.8716   -2.5558    0.0000 C   0  0  0  0  0  0  0  0  0  0  0  0
    1.9862   -1.7308    0.0000 C   0  0  0  0  0  0  0  0  0  0  0  0
    2.7007   -1.3183    0.0000 N   0  0  0  0  0  0  0  0  0  0  0  0
    2.7007   -0.4933    0.0000 C   0  0  0  0  0  0  0  0  0  0  0  0
    1.9862   -0.0808    0.0000 C   0  0  0  0  0  0  0  0  0  0  0  0
   -0.1572   -2.9683    0.0000 C   0  0  0  0  0  0  0  0  0  0  0  0
    3.4152   -1.7308    0.0000 C   0  0  0  0  0  0  0  0  0  0  0  0
    3.4152   -2.5558    0.0000 O   0  0  0  0  0  0  0  0  0  0  0  0
    0.5573   -2.5558    0.0000 C   0  0  0  0  0  0  0  0  0  0  0  0
   -0.1572   -3.7933    0.0000 C   0  0  0  0  0  0  0  0  0  0  0  0
    4.1297   -1.3183    0.0000 C   0  0  0  0  0  0  0  0  0  0  0  0
    4.8441   -0.9058    0.0000 F   0  0  0  0  0  0  0  0  0  0  0  0
    4.5422   -2.0327    0.0000 F   0  0  0  0  0  0  0  0  0  0  0  0
    3.7172   -0.6038    0.0000 F   0  0  0  0  0  0  0  0  0  0  0  0
  1  2  4  0  0  0  0
  2  3  4  0  0  0  0
  3  4  4  0  0  0  0
  4  5  4  0  0  0  0
  5  6  4  0  0  0  0
  6  1  4  0  0  0  0
  4  7  1  0  0  0  0
  8  9  1  0  0  0  0
  9 10  1  0  0  0  0
 10  5  1  0  0  0  0
  7 11  1  0  0  0  0
  9 12  1  0  0  0  0
 10 13  2  0  0  0  0
 10 14  2  0  0  0  0
 11 15  4  0  0  0  0
 15 16  4  0  0  0  0
 16 17  4  0  0  0  0
 17 18  4  0  0  0  0
 18 19  4  0  0  0  0
 19 11  4  0  0  0  0
 15 20  1  0  0  0  0
 18 21  1  0  0  0  0
 21 22  1  0  0  0  0
 22 23  4  0  0  0  0
 23 24  4  0  0  0  0
 24 25  4  0  0  0  0
 25 26  4  0  0  0  0
 26 27  4  0  0  0  0
 27 22  4  0  0  0  0
 23 28  1  0  0  0  0
 28 29  1  0  0  0  0
 25 30  1  0  0  0  0
 30 31  1  0  0  0  0
 31 32  1  0  0  0  0
 32 33  1  0  0  0  0
 33 26  1  0  0  0  0
 29 34  1  0  0  0  0
 31 35  1  0  0  0  0
 35 36  2  0  0  0  0
 34 37  1  0  0  0  0
 34 38  1  0  0  0  0
 35 39  1  0  0  0  0
 39 40  1  0  0  0  0
 39 41  1  0  0  0  0
 39 42  1  0  0  0  0
M  END
> <From>
www.bindingDB.org

> <BindingDB Reactant_set_id>
490396

> <Ligand InChI>
InChI=1S/C28H31ClF3N5O4S/c1-16(2)15-41-23-12-19-14-37(26(38)28(30,31)32)10-9-18(19)11-22(23)35-27-33-13-20(29)25(36-27)34-21-7-5-6-8-24(21)42(39,40)17(3)4/h5-8,11-13,16-17H,9-10,14-15H2,1-4H3,(H2,33,34,35,36)

> <Ligand InChI Key>
WIUVGWCUMGDMPS-UHFFFAOYSA-N

> <BindingDB MonomerID>
243387

> <BindingDB Ligand Name>
1-(6-(5-chloro-4-(2-(isopropylsulfonyl)phenylamino)pyrimidin-2-yl)amino-7-isobutoxy-3,4-dihydroisoquinolin-2(1H)-yl)-2,2,2-trifluoroethane-1-one::US10053458, 19

> <Target Name Assigned by Curator or DataSource>
ALK tyrosine kinase receptor

> <Target Source Organism According to Curator or DataSource>
Homo sapiens

> <Ki (nM)>


> <IC50 (nM)>
<10.00

> <Kd (nM)>


> <EC50 (nM)>


> <kon (M-1-s-1)>


> <koff (s-1)>


> <pH>


> <Temp C>
25.00

> <Curation/DataSource>
US Patent

> <Article DOI>


> <PMID>


> <PubChem AID>


> <Patent Number>
US10053458

> <Authors>
Yun, CS; Kim, HR; Cho, SY; Jung, HJ; Lee, K; Chae, CH; Lee, CO; Park, CH; Kim, P; Hwang, JY; Ha, JD; Ahn, SJ

> <Institution>
KOREA RESEARCH INSTITUTE OF CHEMICAL TECHNOLOGY

> <Link to Ligand in BindingDB>
http://www.bindingdb.org/bind/chemsearch/marvin/MolStructure.jsp?monomerid=243387

> <Link to Ligand-Target Pair in BindingDB>
http://www.bindingdb.org/jsp/dbsearch/PrimarySearch_ki.jsp?energyterm=kJ/mole&tag=pol&polymerid=5809&target=ALK+tyrosine+kinase+receptor&column=ki&startPg=0&Increment=50&submit=Search

> <Link to Ligand-Target Pair in BindingDB>
http://www.bindingdb.org/jsp/dbsearch/PrimarySearch_ki.jsp?energyterm=kJ/mole&tag=r21&monomerid=243387&enzyme=ALK+tyrosine+kinase+receptor&column=ki&startPg=0&Increment=50&submit=Search

> <Ligand HET ID in PDB>


> <PDB ID(s) for Ligand-Target Complex>


> <PubChem CID>
129048440

> <PubChem SID>
376221770

> <ChEBI ID of Ligand>


> <ChEMBL ID of Ligand>


> <DrugBank ID of Ligand>


> <IUPHAR_GRAC ID of Ligand>


> <KEGG ID of Ligand>


> <ZINC ID of Ligand>


> <Number of Protein Chains in Target (>1 implies a multichain complex)>
1

> <BindingDB Target Chain Sequence>
MGAIGLLWLLPLLLSTAAVGSGMGTGQRAGSPAAGPPLQPREPLSYSRLQRKSLAVDFVVPSLFRVYARDLLLPPSSSELKAGRPEARGSLALDCAPLLRLLGPAPGVSWTAGSPAPAEARTLSRVLKGGSVRKLRRAKQLVLELGEEAILEGCVGPPGEAAVGLLQFNLSELFSWWIRQGEGRLRIRLMPEKKASEVGREGRLSAAIRASQPRLLFQIFGTGHSSLESPTNMPSPSPDYFTWNLTWIMKDSFPFLSHRSRYGLECSFDFPCELEYSPPLHDLRNQSWSWRRIPSEEASQMDLLDGPGAERSKEMPRGSFLLLNTSADSKHTILSPWMRSSSEHCTLAVSVHRHLQPSGRYIAQLLPHNEAAREILLMPTPGKHGWTVLQGRIGRPDNPFRVALEYISSGNRSLSAVDFFALKNCSEGTSPGSKMALQSSFTCWNGTVLQLGQACDFHQDCAQGEDESQMCRKLPVGFYCNFEDGFCGWTQGTLSPHTPQWQVRTLKDARFQDHQDHALLLSTTDVPASESATVTSATFPAPIKSSPCELRMSWLIRGVLRGNVSLVLVENKTGKEQGRMVWHVAAYEGLSLWQWMVLPLLDVSDRFWLQMVAWWGQGSRAIVAFDNISISLDCYLTISGEDKILQNTAPKSRNLFERNPNKELKPGENSPRQTPIFDPTVHWLFTTCGASGPHGPTQAQCNNAYQNSNLSVEVGSEGPLKGIQIWKVPATDTYSISGYGAAGGKGGKNTMMRSHGVSVLGIFNLEKDDMLYILVGQQGEDACPSTNQLIQKVCIGENNVIEEEIRVNRSVHEWAGGGGGGGGATYVFKMKDGVPVPLIIAAGGGGRAYGAKTDTFHPERLENNSSVLGLNGNSGAAGGGGGWNDNTSLLWAGKSLQEGATGGHSCPQAMKKWGWETRGGFGGGGGGCSSGGGGGGYIGGNAASNNDPEMDGEDGVSFISPLGILYTPALKVMEGHGEVNIKHYLNCSHCEVDECHMDPESHKVICFCDHGTVLAEDGVSCIVSPTPEPHLPLSLILSVVTSALVAALVLAFSGIMIVYRRKHQELQAMQMELQSPEYKLSKLRTSTIMTDYNPNYCFAGKTSSISDLKEVPRKNITLIRGLGHGAFGEVYEGQVSGMPNDPSPLQVAVKTLPEVCSEQDELDFLMEALIISKFNHQNIVRCIGVSLQSLPRFILLELMAGGDLKSFLRETRPRPSQPSSLAMLDLLHVARDIACGCQYLEENHFIHRDIAARNCLLTCPGPGRVAKIGDFGMARDIYRASYYRKGGCAMLPVKWMPPEAFMEGIFTSKTDTWSFGVLLWEIFSLGYMPYPSKSNQEVLEFVTSGGRMDPPKNCPGPVYRIMTQCWQHQPEDRPNFAIILERIEYCTQDPDVINTALPIEYGPLVEEEEKVPVRPKDPEGVPPLLVSQQAKREEERSPAAPPPLPTTSSGKAAKKPTAAEISVRVPRGPAVEGGHVNMAFSQSNPPSELHKVHGSRNKPTSLWNPTYGSWFTEKPTKKNNPIAKKEPHDRGNLGLEGSCTVPPNVATGRLPGASLLLEPSSLTANMKEVPLFRLRHFPCGNVNYGYQQQGLPLEAATAPGAGHYEDTILKSKNSMNQPGP

> <PDB ID(s) of Target Chain>
2XB7,2XBA,3AOX,5FTO,5FTQ,6E0R,6EBW,6EDL,6MX8

> <UniProt (SwissProt) Recommended Name of Target Chain>
ALK tyrosine kinase receptor

> <UniProt (SwissProt) Entry Name of Target Chain>
ALK_HUMAN

> <UniProt (SwissProt) Primary ID of Target Chain>
Q9UM73

> <UniProt (SwissProt) Secondary ID(s) of Target Chain>
Q4ZFX9,Q53QQ6,Q53RZ4,Q59FI3,Q9Y4K6

> <UniProt (SwissProt) Alternative ID(s) of Target Chain>


> <UniProt (TrEMBL) Submitted Name of Target Chain>


> <UniProt (TrEMBL) Entry Name of Target Chain>


> <UniProt (TrEMBL) Primary ID of Target Chain>


> <UniProt (TrEMBL) Secondary ID(s) of Target Chain>


> <UniProt (TrEMBL) Alternative ID(s) of Target Chain>


$$$$
00222001.cdx
  Mrv0541 10181809492D          

 36 39  0  0  0  0            999 V2000
   -3.2151    2.5303    0.0000 C   0  0  0  0  0  0  0  0  0  0  0  0
   -3.2151    1.7053    0.0000 C   0  0  0  0  0  0  0  0  0  0  0  0
   -2.5006    1.2928    0.0000 C   0  0  0  0  0  0  0  0  0  0  0  0
   -1.7862    1.7053    0.0000 C   0  0  0  0  0  0  0  0  0  0  0  0
   -1.7862    2.5303    0.0000 C   0  0  0  0  0  0  0  0  0  0  0  0
   -2.5006    2.9428    0.0000 C   0  0  0  0  0  0  0  0  0  0  0  0
   -1.0717    1.2928    0.0000 N   0  0  0  0  0  0  0  0  0  0  0  0
   -0.3572    1.7053    0.0000 C   0  0  0  0  0  0  0  0  0  0  0  0
   -0.3572    2.5303    0.0000 C   0  0  0  0  0  0  0  0  0  0  0  0
   -1.0717    2.9428    0.0000 S   0  0  0  0  0  0  0  0  0  0  0  0
   -1.0717    0.4678    0.0000 C   0  0  0  0  0  0  0  0  0  0  0  0
    0.3572    2.9428    0.0000 C   0  0  0  0  0  0  0  0  0  0  0  0
   -0.6592    3.6572    0.0000 O   0  0  0  0  0  0  0  0  0  0  0  0
   -1.6551    3.5261    0.0000 O   0  0  0  0  0  0  0  0  0  0  0  0
   -1.7862    0.0553    0.0000 C   0  0  0  0  0  0  0  0  0  0  0  0
   -1.7862   -0.7697    0.0000 C   0  0  0  0  0  0  0  0  0  0  0  0
   -1.0717   -1.1822    0.0000 N   0  0  0  0  0  0  0  0  0  0  0  0
   -0.3572   -0.7697    0.0000 C   0  0  0  0  0  0  0  0  0  0  0  0
   -0.3572    0.0553    0.0000 N   0  0  0  0  0  0  0  0  0  0  0  0
   -2.5006    0.4678    0.0000 Cl  0  0  0  0  0  0  0  0  0  0  0  0
    0.3572   -1.1822    0.0000 N   0  0  0  0  0  0  0  0  0  0  0  0
    1.0717   -0.7697    0.0000 C   0  0  0  0  0  0  0  0  0  0  0  0
    1.7862   -1.1822    0.0000 C   0  0  0  0  0  0  0  0  0  0  0  0
    2.5006   -0.7697    0.0000 C   0  0  0  0  0  0  0  0  0  0  0  0
    2.5006    0.0553    0.0000 C   0  0  0  0  0  0  0  0  0  0  0  0
    1.7862    0.4678    0.0000 C   0  0  0  0  0  0  0  0  0  0  0  0
    1.0717    0.0553    0.0000 C   0  0  0  0  0  0  0  0  0  0  0  0
    1.7862   -2.0072    0.0000 O   0  0  0  0  0  0  0  0  0  0  0  0
    2.5006   -2.4197    0.0000 C   0  0  0  0  0  0  0  0  0  0  0  0
    3.2151    0.4678    0.0000 C   0  0  0  0  0  0  0  0  0  0  0  0
    3.2151    1.2928    0.0000 N   0  0  0  0  0  0  0  0  0  0  0  0
    2.5006    1.7053    0.0000 C   0  0  0  0  0  0  0  0  0  0  0  0
    1.7862    1.2928    0.0000 C   0  0  0  0  0  0  0  0  0  0  0  0
    2.5006   -3.2447    0.0000 C   0  0  0  0  0  0  0  0  0  0  0  0
    3.2151   -3.6572    0.0000 C   0  0  0  0  0  0  0  0  0  0  0  0
    1.7862   -3.6572    0.0000 C   0  0  0  0  0  0  0  0  0  0  0  0
  1  2  4  0  0  0  0
  2  3  4  0  0  0  0
  3  4  4  0  0  0  0
  4  5  4  0  0  0  0
  5  6  4  0  0  0  0
  6  1  4  0  0  0  0
  4  7  1  0  0  0  0
  8  9  1  0  0  0  0
  9 10  1  0  0  0  0
 10  5  1  0  0  0  0
  7 11  1  0  0  0  0
  9 12  1  0  0  0  0
 10 13  2  0  0  0  0
 10 14  2  0  0  0  0
 11 15  4  0  0  0  0
 15 16  4  0  0  0  0
 16 17  4  0  0  0  0
 17 18  4  0  0  0  0
 18 19  4  0  0  0  0
 19 11  4  0  0  0  0
 15 20  1  0  0  0  0
 18 21  1  0  0  0  0
 21 22  1  0  0  0  0
 22 23  4  0  0  0  0
 23 24  4  0  0  0  0
 24 25  4  0  0  0  0
 25 26  4  0  0  0  0
 26 27  4  0  0  0  0
 27 22  4  0  0  0  0
 23 28  1  0  0  0  0
 28 29  1  0  0  0  0
 25 30  1  0  0  0  0
 30 31  1  0  0  0  0
 31 32  1  0  0  0  0
 32 33  1  0  0  0  0
 33 26  1  0  0  0  0
 29 34  1  0  0  0  0
 34 35  1  0  0  0  0
 34 36  1  0  0  0  0
M  END
> <From>
www.bindingDB.org

> <BindingDB Reactant_set_id>
490398

> <Ligand InChI>
InChI=1S/C26H32ClN5O3S/c1-16(2)15-35-23-12-19-13-28-10-9-18(19)11-22(23)31-26-29-14-20(27)25(32-26)30-21-7-5-6-8-24(21)36(33,34)17(3)4/h5-8,11-12,14,16-17,28H,9-10,13,15H2,1-4H3,(H2,29,30,31,32)

> <Ligand InChI Key>
VBOPOANOSXCWQK-UHFFFAOYSA-N

> <BindingDB MonomerID>
243388

> <BindingDB Ligand Name>
5-chloro-N4-(2-(isopropylsulfonyl)phenyl)-N2-(7-isobutoxy-1,2,3,4-tetrahydroisoquinolin-6-yl)pyrimidine-2,4-diamine::US10053458, 20

> <Target Name Assigned by Curator or DataSource>
ALK tyrosine kinase receptor

> <Target Source Organism According to Curator or DataSource>
Homo sapiens

> <Ki (nM)>


> <IC50 (nM)>
<10.00

> <Kd (nM)>


> <EC50 (nM)>


> <kon (M-1-s-1)>


> <koff (s-1)>


> <pH>


> <Temp C>
25.00

> <Curation/DataSource>
US Patent

> <Article DOI>


> <PMID>


> <PubChem AID>


> <Patent Number>
US10053458

> <Authors>
Yun, CS; Kim, HR; Cho, SY; Jung, HJ; Lee, K; Chae, CH; Lee, CO; Park, CH; Kim, P; Hwang, JY; Ha, JD; Ahn, SJ

> <Institution>
KOREA RESEARCH INSTITUTE OF CHEMICAL TECHNOLOGY

> <Link to Ligand in BindingDB>
http://www.bindingdb.org/bind/chemsearch/marvin/MolStructure.jsp?monomerid=243388

> <Link to Ligand-Target Pair in BindingDB>
http://www.bindingdb.org/jsp/dbsearch/PrimarySearch_ki.jsp?energyterm=kJ/mole&tag=pol&polymerid=5809&target=ALK+tyrosine+kinase+receptor&column=ki&startPg=0&Increment=50&submit=Search

> <Link to Ligand-Target Pair in BindingDB>
http://www.bindingdb.org/jsp/dbsearch/PrimarySearch_ki.jsp?energyterm=kJ/mole&tag=r21&monomerid=243388&enzyme=ALK+tyrosine+kinase+receptor&column=ki&startPg=0&Increment=50&submit=Search

> <Ligand HET ID in PDB>


> <PDB ID(s) for Ligand-Target Complex>


> <PubChem CID>
129048450

> <PubChem SID>
376221771

> <ChEBI ID of Ligand>


> <ChEMBL ID of Ligand>


> <DrugBank ID of Ligand>


> <IUPHAR_GRAC ID of Ligand>


> <KEGG ID of Ligand>


> <ZINC ID of Ligand>


> <Number of Protein Chains in Target (>1 implies a multichain complex)>
1

> <BindingDB Target Chain Sequence>
MGAIGLLWLLPLLLSTAAVGSGMGTGQRAGSPAAGPPLQPREPLSYSRLQRKSLAVDFVVPSLFRVYARDLLLPPSSSELKAGRPEARGSLALDCAPLLRLLGPAPGVSWTAGSPAPAEARTLSRVLKGGSVRKLRRAKQLVLELGEEAILEGCVGPPGEAAVGLLQFNLSELFSWWIRQGEGRLRIRLMPEKKASEVGREGRLSAAIRASQPRLLFQIFGTGHSSLESPTNMPSPSPDYFTWNLTWIMKDSFPFLSHRSRYGLECSFDFPCELEYSPPLHDLRNQSWSWRRIPSEEASQMDLLDGPGAERSKEMPRGSFLLLNTSADSKHTILSPWMRSSSEHCTLAVSVHRHLQPSGRYIAQLLPHNEAAREILLMPTPGKHGWTVLQGRIGRPDNPFRVALEYISSGNRSLSAVDFFALKNCSEGTSPGSKMALQSSFTCWNGTVLQLGQACDFHQDCAQGEDESQMCRKLPVGFYCNFEDGFCGWTQGTLSPHTPQWQVRTLKDARFQDHQDHALLLSTTDVPASESATVTSATFPAPIKSSPCELRMSWLIRGVLRGNVSLVLVENKTGKEQGRMVWHVAAYEGLSLWQWMVLPLLDVSDRFWLQMVAWWGQGSRAIVAFDNISISLDCYLTISGEDKILQNTAPKSRNLFERNPNKELKPGENSPRQTPIFDPTVHWLFTTCGASGPHGPTQAQCNNAYQNSNLSVEVGSEGPLKGIQIWKVPATDTYSISGYGAAGGKGGKNTMMRSHGVSVLGIFNLEKDDMLYILVGQQGEDACPSTNQLIQKVCIGENNVIEEEIRVNRSVHEWAGGGGGGGGATYVFKMKDGVPVPLIIAAGGGGRAYGAKTDTFHPERLENNSSVLGLNGNSGAAGGGGGWNDNTSLLWAGKSLQEGATGGHSCPQAMKKWGWETRGGFGGGGGGCSSGGGGGGYIGGNAASNNDPEMDGEDGVSFISPLGILYTPALKVMEGHGEVNIKHYLNCSHCEVDECHMDPESHKVICFCDHGTVLAEDGVSCIVSPTPEPHLPLSLILSVVTSALVAALVLAFSGIMIVYRRKHQELQAMQMELQSPEYKLSKLRTSTIMTDYNPNYCFAGKTSSISDLKEVPRKNITLIRGLGHGAFGEVYEGQVSGMPNDPSPLQVAVKTLPEVCSEQDELDFLMEALIISKFNHQNIVRCIGVSLQSLPRFILLELMAGGDLKSFLRETRPRPSQPSSLAMLDLLHVARDIACGCQYLEENHFIHRDIAARNCLLTCPGPGRVAKIGDFGMARDIYRASYYRKGGCAMLPVKWMPPEAFMEGIFTSKTDTWSFGVLLWEIFSLGYMPYPSKSNQEVLEFVTSGGRMDPPKNCPGPVYRIMTQCWQHQPEDRPNFAIILERIEYCTQDPDVINTALPIEYGPLVEEEEKVPVRPKDPEGVPPLLVSQQAKREEERSPAAPPPLPTTSSGKAAKKPTAAEISVRVPRGPAVEGGHVNMAFSQSNPPSELHKVHGSRNKPTSLWNPTYGSWFTEKPTKKNNPIAKKEPHDRGNLGLEGSCTVPPNVATGRLPGASLLLEPSSLTANMKEVPLFRLRHFPCGNVNYGYQQQGLPLEAATAPGAGHYEDTILKSKNSMNQPGP

> <PDB ID(s) of Target Chain>
2XB7,2XBA,3AOX,5FTO,5FTQ,6E0R,6EBW,6EDL,6MX8

> <UniProt (SwissProt) Recommended Name of Target Chain>
ALK tyrosine kinase receptor

> <UniProt (SwissProt) Entry Name of Target Chain>
ALK_HUMAN

> <UniProt (SwissProt) Primary ID of Target Chain>
Q9UM73

> <UniProt (SwissProt) Secondary ID(s) of Target Chain>
Q4ZFX9,Q53QQ6,Q53RZ4,Q59FI3,Q9Y4K6

> <UniProt (SwissProt) Alternative ID(s) of Target Chain>


> <UniProt (TrEMBL) Submitted Name of Target Chain>


> <UniProt (TrEMBL) Entry Name of Target Chain>


> <UniProt (TrEMBL) Primary ID of Target Chain>


> <UniProt (TrEMBL) Secondary ID(s) of Target Chain>


> <UniProt (TrEMBL) Alternative ID(s) of Target Chain>


$$$$
00227001.cdx
  Mrv0541 10181809492D          

 42 45  0  0  0  0            999 V2000
   -2.2495    4.9183    0.0000 C   0  0  0  0  0  0  0  0  0  0  0  0
   -1.5351    4.5058    0.0000 C   0  0  0  0  0  0  0  0  0  0  0  0
   -1.5351    3.6808    0.0000 C   0  0  0  0  0  0  0  0  0  0  0  0
   -2.2495    3.2683    0.0000 C   0  0  0  0  0  0  0  0  0  0  0  0
   -2.9640    3.6808    0.0000 C   0  0  0  0  0  0  0  0  0  0  0  0
   -2.9640    4.5058    0.0000 C   0  0  0  0  0  0  0  0  0  0  0  0
   -2.2495    2.4433    0.0000 N   0  0  0  0  0  0  0  0  0  0  0  0
   -5.1074    3.2683    0.0000 C   0  0  0  0  0  0  0  0  0  0  0  0
   -4.3930    2.8558    0.0000 C   0  0  0  0  0  0  0  0  0  0  0  0
   -3.6785    3.2683    0.0000 S   0  0  0  0  0  0  0  0  0  0  0  0
   -1.5351    2.0308    0.0000 C   0  0  0  0  0  0  0  0  0  0  0  0
   -4.3930    2.0308    0.0000 C   0  0  0  0  0  0  0  0  0  0  0  0
   -3.2660    2.5539    0.0000 O   0  0  0  0  0  0  0  0  0  0  0  0
   -4.0910    3.9828    0.0000 O   0  0  0  0  0  0  0  0  0  0  0  0
   -0.8206    2.4433    0.0000 C   0  0  0  0  0  0  0  0  0  0  0  0
   -0.1061    2.0308    0.0000 C   0  0  0  0  0  0  0  0  0  0  0  0
   -0.1061    1.2058    0.0000 N   0  0  0  0  0  0  0  0  0  0  0  0
   -0.8206    0.7933    0.0000 C   0  0  0  0  0  0  0  0  0  0  0  0
   -1.5351    1.2058    0.0000 N   0  0  0  0  0  0  0  0  0  0  0  0
   -0.8206    3.2683    0.0000 Cl  0  0  0  0  0  0  0  0  0  0  0  0
   -0.8206   -0.0317    0.0000 N   0  0  0  0  0  0  0  0  0  0  0  0
   -0.1061   -0.4442    0.0000 C   0  0  0  0  0  0  0  0  0  0  0  0
   -0.1061   -1.2692    0.0000 C   0  0  0  0  0  0  0  0  0  0  0  0
    0.6083   -1.6817    0.0000 C   0  0  0  0  0  0  0  0  0  0  0  0
    1.3228   -1.2692    0.0000 C   0  0  0  0  0  0  0  0  0  0  0  0
    1.3228   -0.4442    0.0000 C   0  0  0  0  0  0  0  0  0  0  0  0
    0.6083   -0.0317    0.0000 C   0  0  0  0  0  0  0  0  0  0  0  0
   -0.8206   -1.6817    0.0000 O   0  0  0  0  0  0  0  0  0  0  0  0
   -0.8206   -2.5067    0.0000 C   0  0  0  0  0  0  0  0  0  0  0  0
    2.0373   -1.6817    0.0000 C   0  0  0  0  0  0  0  0  0  0  0  0
    2.7517   -1.2692    0.0000 N   0  0  0  0  0  0  0  0  0  0  0  0
    2.7517   -0.4442    0.0000 C   0  0  0  0  0  0  0  0  0  0  0  0
    2.0373   -0.0317    0.0000 C   0  0  0  0  0  0  0  0  0  0  0  0
   -0.1061   -2.9192    0.0000 C   0  0  0  0  0  0  0  0  0  0  0  0
   -0.1061   -3.7442    0.0000 C   0  0  0  0  0  0  0  0  0  0  0  0
   -1.5351   -2.9192    0.0000 C   0  0  0  0  0  0  0  0  0  0  0  0
    3.4662   -1.6817    0.0000 C   0  0  0  0  0  0  0  0  0  0  0  0
    3.4662   -2.5067    0.0000 O   0  0  0  0  0  0  0  0  0  0  0  0
    4.1807   -1.2692    0.0000 C   0  0  0  0  0  0  0  0  0  0  0  0
    4.8952   -0.8567    0.0000 F   0  0  0  0  0  0  0  0  0  0  0  0
    4.5932   -1.9836    0.0000 F   0  0  0  0  0  0  0  0  0  0  0  0
    3.7682   -0.5547    0.0000 F   0  0  0  0  0  0  0  0  0  0  0  0
  1  2  4  0  0  0  0
  2  3  4  0  0  0  0
  3  4  4  0  0  0  0
  4  5  4  0  0  0  0
  5  6  4  0  0  0  0
  6  1  4  0  0  0  0
  4  7  1  0  0  0  0
  8  9  1  0  0  0  0
  9 10  1  0  0  0  0
 10  5  1  0  0  0  0
  7 11  1  0  0  0  0
  9 12  1  0  0  0  0
 10 13  2  0  0  0  0
 10 14  2  0  0  0  0
 11 15  4  0  0  0  0
 15 16  4  0  0  0  0
 16 17  4  0  0  0  0
 17 18  4  0  0  0  0
 18 19  4  0  0  0  0
 19 11  4  0  0  0  0
 15 20  1  0  0  0  0
 18 21  1  0  0  0  0
 21 22  1  0  0  0  0
 22 23  4  0  0  0  0
 23 24  4  0  0  0  0
 24 25  4  0  0  0  0
 25 26  4  0  0  0  0
 26 27  4  0  0  0  0
 27 22  4  0  0  0  0
 23 28  1  0  0  0  0
 28 29  1  0  0  0  0
 25 30  1  0  0  0  0
 30 31  1  0  0  0  0
 31 32  1  0  0  0  0
 32 33  1  0  0  0  0
 33 26  1  0  0  0  0
 29 34  1  0  0  0  0
 34 35  1  0  0  0  0
 29 36  1  0  0  0  0
 31 37  1  0  0  0  0
 37 38  2  0  0  0  0
 37 39  1  0  0  0  0
 39 40  1  0  0  0  0
 39 41  1  0  0  0  0
 39 42  1  0  0  0  0
M  END
> <From>
www.bindingDB.org

> <BindingDB Reactant_set_id>
490400

> <Ligand InChI>
InChI=1S/C28H31ClF3N5O4S/c1-5-17(4)41-23-13-19-15-37(26(38)28(30,31)32)11-10-18(19)12-22(23)35-27-33-14-20(29)25(36-27)34-21-8-6-7-9-24(21)42(39,40)16(2)3/h6-9,12-14,16-17H,5,10-11,15H2,1-4H3,(H2,33,34,35,36)

> <Ligand InChI Key>
VWDXFSIBUACHMN-UHFFFAOYSA-N

> <BindingDB MonomerID>
243389

> <BindingDB Ligand Name>
1-(7-(sec-butoxy)-6-((5-chloro-4-(2-(isopropylsulfonyl)phenyl)amino)pyrimidin-2-yl)amino)-3,4-dihydroisoquinolin-2(1H)-yl)-2,2,2-trifluoroethane-1-one::US10053458, 21

> <Target Name Assigned by Curator or DataSource>
ALK tyrosine kinase receptor

> <Target Source Organism According to Curator or DataSource>
Homo sapiens

> <Ki (nM)>


> <IC50 (nM)>
<10.00

> <Kd (nM)>


> <EC50 (nM)>


> <kon (M-1-s-1)>


> <koff (s-1)>


> <pH>


> <Temp C>
25.00

> <Curation/DataSource>
US Patent

> <Article DOI>


> <PMID>


> <PubChem AID>


> <Patent Number>
US10053458

> <Authors>
Yun, CS; Kim, HR; Cho, SY; Jung, HJ; Lee, K; Chae, CH; Lee, CO; Park, CH; Kim, P; Hwang, JY; Ha, JD; Ahn, SJ

> <Institution>
KOREA RESEARCH INSTITUTE OF CHEMICAL TECHNOLOGY

> <Link to Ligand in BindingDB>
http://www.bindingdb.org/bind/chemsearch/marvin/MolStructure.jsp?monomerid=243389

> <Link to Ligand-Target Pair in BindingDB>
http://www.bindingdb.org/jsp/dbsearch/PrimarySearch_ki.jsp?energyterm=kJ/mole&tag=pol&polymerid=5809&target=ALK+tyrosine+kinase+receptor&column=ki&startPg=0&Increment=50&submit=Search

> <Link to Ligand-Target Pair in BindingDB>
http://www.bindingdb.org/jsp/dbsearch/PrimarySearch_ki.jsp?energyterm=kJ/mole&tag=r21&monomerid=243389&enzyme=ALK+tyrosine+kinase+receptor&column=ki&startPg=0&Increment=50&submit=Search

> <Ligand HET ID in PDB>


> <PDB ID(s) for Ligand-Target Complex>


> <PubChem CID>
129048559

> <PubChem SID>
376221772

> <ChEBI ID of Ligand>


> <ChEMBL ID of Ligand>


> <DrugBank ID of Ligand>


> <IUPHAR_GRAC ID of Ligand>


> <KEGG ID of Ligand>


> <ZINC ID of Ligand>


> <Number of Protein Chains in Target (>1 implies a multichain complex)>
1

> <BindingDB Target Chain Sequence>
MGAIGLLWLLPLLLSTAAVGSGMGTGQRAGSPAAGPPLQPREPLSYSRLQRKSLAVDFVVPSLFRVYARDLLLPPSSSELKAGRPEARGSLALDCAPLLRLLGPAPGVSWTAGSPAPAEARTLSRVLKGGSVRKLRRAKQLVLELGEEAILEGCVGPPGEAAVGLLQFNLSELFSWWIRQGEGRLRIRLMPEKKASEVGREGRLSAAIRASQPRLLFQIFGTGHSSLESPTNMPSPSPDYFTWNLTWIMKDSFPFLSHRSRYGLECSFDFPCELEYSPPLHDLRNQSWSWRRIPSEEASQMDLLDGPGAERSKEMPRGSFLLLNTSADSKHTILSPWMRSSSEHCTLAVSVHRHLQPSGRYIAQLLPHNEAAREILLMPTPGKHGWTVLQGRIGRPDNPFRVALEYISSGNRSLSAVDFFALKNCSEGTSPGSKMALQSSFTCWNGTVLQLGQACDFHQDCAQGEDESQMCRKLPVGFYCNFEDGFCGWTQGTLSPHTPQWQVRTLKDARFQDHQDHALLLSTTDVPASESATVTSATFPAPIKSSPCELRMSWLIRGVLRGNVSLVLVENKTGKEQGRMVWHVAAYEGLSLWQWMVLPLLDVSDRFWLQMVAWWGQGSRAIVAFDNISISLDCYLTISGEDKILQNTAPKSRNLFERNPNKELKPGENSPRQTPIFDPTVHWLFTTCGASGPHGPTQAQCNNAYQNSNLSVEVGSEGPLKGIQIWKVPATDTYSISGYGAAGGKGGKNTMMRSHGVSVLGIFNLEKDDMLYILVGQQGEDACPSTNQLIQKVCIGENNVIEEEIRVNRSVHEWAGGGGGGGGATYVFKMKDGVPVPLIIAAGGGGRAYGAKTDTFHPERLENNSSVLGLNGNSGAAGGGGGWNDNTSLLWAGKSLQEGATGGHSCPQAMKKWGWETRGGFGGGGGGCSSGGGGGGYIGGNAASNNDPEMDGEDGVSFISPLGILYTPALKVMEGHGEVNIKHYLNCSHCEVDECHMDPESHKVICFCDHGTVLAEDGVSCIVSPTPEPHLPLSLILSVVTSALVAALVLAFSGIMIVYRRKHQELQAMQMELQSPEYKLSKLRTSTIMTDYNPNYCFAGKTSSISDLKEVPRKNITLIRGLGHGAFGEVYEGQVSGMPNDPSPLQVAVKTLPEVCSEQDELDFLMEALIISKFNHQNIVRCIGVSLQSLPRFILLELMAGGDLKSFLRETRPRPSQPSSLAMLDLLHVARDIACGCQYLEENHFIHRDIAARNCLLTCPGPGRVAKIGDFGMARDIYRASYYRKGGCAMLPVKWMPPEAFMEGIFTSKTDTWSFGVLLWEIFSLGYMPYPSKSNQEVLEFVTSGGRMDPPKNCPGPVYRIMTQCWQHQPEDRPNFAIILERIEYCTQDPDVINTALPIEYGPLVEEEEKVPVRPKDPEGVPPLLVSQQAKREEERSPAAPPPLPTTSSGKAAKKPTAAEISVRVPRGPAVEGGHVNMAFSQSNPPSELHKVHGSRNKPTSLWNPTYGSWFTEKPTKKNNPIAKKEPHDRGNLGLEGSCTVPPNVATGRLPGASLLLEPSSLTANMKEVPLFRLRHFPCGNVNYGYQQQGLPLEAATAPGAGHYEDTILKSKNSMNQPGP

> <PDB ID(s) of Target Chain>
2XB7,2XBA,3AOX,5FTO,5FTQ,6E0R,6EBW,6EDL,6MX8

> <UniProt (SwissProt) Recommended Name of Target Chain>
ALK tyrosine kinase receptor

> <UniProt (SwissProt) Entry Name of Target Chain>
ALK_HUMAN

> <UniProt (SwissProt) Primary ID of Target Chain>
Q9UM73

> <UniProt (SwissProt) Secondary ID(s) of Target Chain>
Q4ZFX9,Q53QQ6,Q53RZ4,Q59FI3,Q9Y4K6

> <UniProt (SwissProt) Alternative ID(s) of Target Chain>


> <UniProt (TrEMBL) Submitted Name of Target Chain>


> <UniProt (TrEMBL) Entry Name of Target Chain>


> <UniProt (TrEMBL) Primary ID of Target Chain>


> <UniProt (TrEMBL) Secondary ID(s) of Target Chain>


> <UniProt (TrEMBL) Alternative ID(s) of Target Chain>


$$$$
00228001.cdx
  Mrv0541 10181809492D          

 36 39  0  0  0  0            999 V2000
   -3.2151    2.5303    0.0000 C   0  0  0  0  0  0  0  0  0  0  0  0
   -3.2151    1.7053    0.0000 C   0  0  0  0  0  0  0  0  0  0  0  0
   -2.5006    1.2928    0.0000 C   0  0  0  0  0  0  0  0  0  0  0  0
   -1.7862    1.7053    0.0000 C   0  0  0  0  0  0  0  0  0  0  0  0
   -1.7862    2.5303    0.0000 C   0  0  0  0  0  0  0  0  0  0  0  0
   -2.5006    2.9428    0.0000 C   0  0  0  0  0  0  0  0  0  0  0  0
   -1.0717    1.2928    0.0000 N   0  0  0  0  0  0  0  0  0  0  0  0
   -0.3572    1.7053    0.0000 C   0  0  0  0  0  0  0  0  0  0  0  0
   -0.3572    2.5303    0.0000 C   0  0  0  0  0  0  0  0  0  0  0  0
   -1.0717    2.9428    0.0000 S   0  0  0  0  0  0  0  0  0  0  0  0
   -1.0717    0.4678    0.0000 C   0  0  0  0  0  0  0  0  0  0  0  0
    0.3572    2.9428    0.0000 C   0  0  0  0  0  0  0  0  0  0  0  0
   -0.6592    3.6572    0.0000 O   0  0  0  0  0  0  0  0  0  0  0  0
   -1.6551    3.5261    0.0000 O   0  0  0  0  0  0  0  0  0  0  0  0
   -1.7862    0.0553    0.0000 C   0  0  0  0  0  0  0  0  0  0  0  0
   -1.7862   -0.7697    0.0000 C   0  0  0  0  0  0  0  0  0  0  0  0
   -1.0717   -1.1822    0.0000 N   0  0  0  0  0  0  0  0  0  0  0  0
   -0.3572   -0.7697    0.0000 C   0  0  0  0  0  0  0  0  0  0  0  0
   -0.3572    0.0553    0.0000 N   0  0  0  0  0  0  0  0  0  0  0  0
   -2.5006    0.4678    0.0000 Cl  0  0  0  0  0  0  0  0  0  0  0  0
    0.3572   -1.1822    0.0000 N   0  0  0  0  0  0  0  0  0  0  0  0
    1.0717   -0.7697    0.0000 C   0  0  0  0  0  0  0  0  0  0  0  0
    1.7862   -1.1822    0.0000 C   0  0  0  0  0  0  0  0  0  0  0  0
    2.5006   -0.7697    0.0000 C   0  0  0  0  0  0  0  0  0  0  0  0
    2.5006    0.0553    0.0000 C   0  0  0  0  0  0  0  0  0  0  0  0
    1.7862    0.4678    0.0000 C   0  0  0  0  0  0  0  0  0  0  0  0
    1.0717    0.0553    0.0000 C   0  0  0  0  0  0  0  0  0  0  0  0
    1.7862   -2.0072    0.0000 O   0  0  0  0  0  0  0  0  0  0  0  0
    2.5006   -2.4197    0.0000 C   0  0  0  0  0  0  0  0  0  0  0  0
    3.2151    0.4678    0.0000 C   0  0  0  0  0  0  0  0  0  0  0  0
    3.2151    1.2928    0.0000 N   0  0  0  0  0  0  0  0  0  0  0  0
    2.5006    1.7053    0.0000 C   0  0  0  0  0  0  0  0  0  0  0  0
    1.7862    1.2928    0.0000 C   0  0  0  0  0  0  0  0  0  0  0  0
    2.5006   -3.2447    0.0000 C   0  0  0  0  0  0  0  0  0  0  0  0
    1.7862   -3.6572    0.0000 C   0  0  0  0  0  0  0  0  0  0  0  0
    3.2151   -2.0072    0.0000 C   0  0  0  0  0  0  0  0  0  0  0  0
  1  2  4  0  0  0  0
  2  3  4  0  0  0  0
  3  4  4  0  0  0  0
  4  5  4  0  0  0  0
  5  6  4  0  0  0  0
  6  1  4  0  0  0  0
  4  7  1  0  0  0  0
  8  9  1  0  0  0  0
  9 10  1  0  0  0  0
 10  5  1  0  0  0  0
  7 11  1  0  0  0  0
  9 12  1  0  0  0  0
 10 13  2  0  0  0  0
 10 14  2  0  0  0  0
 11 15  4  0  0  0  0
 15 16  4  0  0  0  0
 16 17  4  0  0  0  0
 17 18  4  0  0  0  0
 18 19  4  0  0  0  0
 19 11  4  0  0  0  0
 15 20  1  0  0  0  0
 18 21  1  0  0  0  0
 21 22  1  0  0  0  0
 22 23  4  0  0  0  0
 23 24  4  0  0  0  0
 24 25  4  0  0  0  0
 25 26  4  0  0  0  0
 26 27  4  0  0  0  0
 27 22  4  0  0  0  0
 23 28  1  0  0  0  0
 28 29  1  0  0  0  0
 25 30  1  0  0  0  0
 30 31  1  0  0  0  0
 31 32  1  0  0  0  0
 32 33  1  0  0  0  0
 33 26  1  0  0  0  0
 29 34  1  0  0  0  0
 34 35  1  0  0  0  0
 29 36  1  0  0  0  0
M  END
> <From>
www.bindingDB.org

> <BindingDB Reactant_set_id>
490402

> <Ligand InChI>
InChI=1S/C26H32ClN5O3S/c1-5-17(4)35-23-13-19-14-28-11-10-18(19)12-22(23)31-26-29-15-20(27)25(32-26)30-21-8-6-7-9-24(21)36(33,34)16(2)3/h6-9,12-13,15-17,28H,5,10-11,14H2,1-4H3,(H2,29,30,31,32)

> <Ligand InChI Key>
GNDJKIUZARFMOV-UHFFFAOYSA-N

> <BindingDB MonomerID>
243390

> <BindingDB Ligand Name>
5-chloro-N2-(7-sec-butoxy-1,2,3,4-tetrahydroisoquinolin-6-yl)-N4-(2-isopropylsulfonyl)phenyl)pyrimidine-2,4-diamine::US10053458, 22

> <Target Name Assigned by Curator or DataSource>
ALK tyrosine kinase receptor

> <Target Source Organism According to Curator or DataSource>
Homo sapiens

> <Ki (nM)>


> <IC50 (nM)>
<10.00

> <Kd (nM)>


> <EC50 (nM)>


> <kon (M-1-s-1)>


> <koff (s-1)>


> <pH>


> <Temp C>
25.00

> <Curation/DataSource>
US Patent

> <Article DOI>


> <PMID>


> <PubChem AID>


> <Patent Number>
US10053458

> <Authors>
Yun, CS; Kim, HR; Cho, SY; Jung, HJ; Lee, K; Chae, CH; Lee, CO; Park, CH; Kim, P; Hwang, JY; Ha, JD; Ahn, SJ

> <Institution>
KOREA RESEARCH INSTITUTE OF CHEMICAL TECHNOLOGY

> <Link to Ligand in BindingDB>
http://www.bindingdb.org/bind/chemsearch/marvin/MolStructure.jsp?monomerid=243390

> <Link to Ligand-Target Pair in BindingDB>
http://www.bindingdb.org/jsp/dbsearch/PrimarySearch_ki.jsp?energyterm=kJ/mole&tag=pol&polymerid=5809&target=ALK+tyrosine+kinase+receptor&column=ki&startPg=0&Increment=50&submit=Search

> <Link to Ligand-Target Pair in BindingDB>
http://www.bindingdb.org/jsp/dbsearch/PrimarySearch_ki.jsp?energyterm=kJ/mole&tag=r21&monomerid=243390&enzyme=ALK+tyrosine+kinase+receptor&column=ki&startPg=0&Increment=50&submit=Search

> <Ligand HET ID in PDB>


> <PDB ID(s) for Ligand-Target Complex>


> <PubChem CID>
129048484

> <PubChem SID>
376221773

> <ChEBI ID of Ligand>


> <ChEMBL ID of Ligand>


> <DrugBank ID of Ligand>


> <IUPHAR_GRAC ID of Ligand>


> <KEGG ID of Ligand>


> <ZINC ID of Ligand>


> <Number of Protein Chains in Target (>1 implies a multichain complex)>
1

> <BindingDB Target Chain Sequence>
MGAIGLLWLLPLLLSTAAVGSGMGTGQRAGSPAAGPPLQPREPLSYSRLQRKSLAVDFVVPSLFRVYARDLLLPPSSSELKAGRPEARGSLALDCAPLLRLLGPAPGVSWTAGSPAPAEARTLSRVLKGGSVRKLRRAKQLVLELGEEAILEGCVGPPGEAAVGLLQFNLSELFSWWIRQGEGRLRIRLMPEKKASEVGREGRLSAAIRASQPRLLFQIFGTGHSSLESPTNMPSPSPDYFTWNLTWIMKDSFPFLSHRSRYGLECSFDFPCELEYSPPLHDLRNQSWSWRRIPSEEASQMDLLDGPGAERSKEMPRGSFLLLNTSADSKHTILSPWMRSSSEHCTLAVSVHRHLQPSGRYIAQLLPHNEAAREILLMPTPGKHGWTVLQGRIGRPDNPFRVALEYISSGNRSLSAVDFFALKNCSEGTSPGSKMALQSSFTCWNGTVLQLGQACDFHQDCAQGEDESQMCRKLPVGFYCNFEDGFCGWTQGTLSPHTPQWQVRTLKDARFQDHQDHALLLSTTDVPASESATVTSATFPAPIKSSPCELRMSWLIRGVLRGNVSLVLVENKTGKEQGRMVWHVAAYEGLSLWQWMVLPLLDVSDRFWLQMVAWWGQGSRAIVAFDNISISLDCYLTISGEDKILQNTAPKSRNLFERNPNKELKPGENSPRQTPIFDPTVHWLFTTCGASGPHGPTQAQCNNAYQNSNLSVEVGSEGPLKGIQIWKVPATDTYSISGYGAAGGKGGKNTMMRSHGVSVLGIFNLEKDDMLYILVGQQGEDACPSTNQLIQKVCIGENNVIEEEIRVNRSVHEWAGGGGGGGGATYVFKMKDGVPVPLIIAAGGGGRAYGAKTDTFHPERLENNSSVLGLNGNSGAAGGGGGWNDNTSLLWAGKSLQEGATGGHSCPQAMKKWGWETRGGFGGGGGGCSSGGGGGGYIGGNAASNNDPEMDGEDGVSFISPLGILYTPALKVMEGHGEVNIKHYLNCSHCEVDECHMDPESHKVICFCDHGTVLAEDGVSCIVSPTPEPHLPLSLILSVVTSALVAALVLAFSGIMIVYRRKHQELQAMQMELQSPEYKLSKLRTSTIMTDYNPNYCFAGKTSSISDLKEVPRKNITLIRGLGHGAFGEVYEGQVSGMPNDPSPLQVAVKTLPEVCSEQDELDFLMEALIISKFNHQNIVRCIGVSLQSLPRFILLELMAGGDLKSFLRETRPRPSQPSSLAMLDLLHVARDIACGCQYLEENHFIHRDIAARNCLLTCPGPGRVAKIGDFGMARDIYRASYYRKGGCAMLPVKWMPPEAFMEGIFTSKTDTWSFGVLLWEIFSLGYMPYPSKSNQEVLEFVTSGGRMDPPKNCPGPVYRIMTQCWQHQPEDRPNFAIILERIEYCTQDPDVINTALPIEYGPLVEEEEKVPVRPKDPEGVPPLLVSQQAKREEERSPAAPPPLPTTSSGKAAKKPTAAEISVRVPRGPAVEGGHVNMAFSQSNPPSELHKVHGSRNKPTSLWNPTYGSWFTEKPTKKNNPIAKKEPHDRGNLGLEGSCTVPPNVATGRLPGASLLLEPSSLTANMKEVPLFRLRHFPCGNVNYGYQQQGLPLEAATAPGAGHYEDTILKSKNSMNQPGP

> <PDB ID(s) of Target Chain>
2XB7,2XBA,3AOX,5FTO,5FTQ,6E0R,6EBW,6EDL,6MX8

> <UniProt (SwissProt) Recommended Name of Target Chain>
ALK tyrosine kinase receptor

> <UniProt (SwissProt) Entry Name of Target Chain>
ALK_HUMAN

> <UniProt (SwissProt) Primary ID of Target Chain>
Q9UM73

> <UniProt (SwissProt) Secondary ID(s) of Target Chain>
Q4ZFX9,Q53QQ6,Q53RZ4,Q59FI3,Q9Y4K6

> <UniProt (SwissProt) Alternative ID(s) of Target Chain>


> <UniProt (TrEMBL) Submitted Name of Target Chain>


> <UniProt (TrEMBL) Entry Name of Target Chain>


> <UniProt (TrEMBL) Primary ID of Target Chain>


> <UniProt (TrEMBL) Secondary ID(s) of Target Chain>


> <UniProt (TrEMBL) Alternative ID(s) of Target Chain>


$$$$
00229001.cdx
  Mrv0541 10181809492D          

 38 41  0  0  0  0            999 V2000
   -4.6441    1.9115    0.0000 C   0  0  0  0  0  0  0  0  0  0  0  0
   -4.6441    1.0865    0.0000 C   0  0  0  0  0  0  0  0  0  0  0  0
   -3.9296    0.6740    0.0000 C   0  0  0  0  0  0  0  0  0  0  0  0
   -3.2151    1.0865    0.0000 C   0  0  0  0  0  0  0  0  0  0  0  0
   -3.2151    1.9115    0.0000 C   0  0  0  0  0  0  0  0  0  0  0  0
   -3.9296    2.3240    0.0000 C   0  0  0  0  0  0  0  0  0  0  0  0
   -2.5006    0.6740    0.0000 N   0  0  0  0  0  0  0  0  0  0  0  0
   -1.7862    1.0865    0.0000 C   0  0  0  0  0  0  0  0  0  0  0  0
   -1.7862    1.9115    0.0000 C   0  0  0  0  0  0  0  0  0  0  0  0
   -2.5006    2.3240    0.0000 S   0  0  0  0  0  0  0  0  0  0  0  0
   -2.5006   -0.1510    0.0000 C   0  0  0  0  0  0  0  0  0  0  0  0
   -1.0717    2.3240    0.0000 C   0  0  0  0  0  0  0  0  0  0  0  0
   -2.0881    3.0385    0.0000 O   0  0  0  0  0  0  0  0  0  0  0  0
   -3.0840    2.9074    0.0000 O   0  0  0  0  0  0  0  0  0  0  0  0
   -3.2151   -0.5635    0.0000 C   0  0  0  0  0  0  0  0  0  0  0  0
   -3.2151   -1.3885    0.0000 C   0  0  0  0  0  0  0  0  0  0  0  0
   -2.5006   -1.8010    0.0000 N   0  0  0  0  0  0  0  0  0  0  0  0
   -1.7862   -1.3885    0.0000 C   0  0  0  0  0  0  0  0  0  0  0  0
   -1.7862   -0.5635    0.0000 N   0  0  0  0  0  0  0  0  0  0  0  0
   -3.9296   -0.1510    0.0000 Cl  0  0  0  0  0  0  0  0  0  0  0  0
   -1.0717   -1.8010    0.0000 N   0  0  0  0  0  0  0  0  0  0  0  0
   -0.3572   -1.3885    0.0000 C   0  0  0  0  0  0  0  0  0  0  0  0
    0.3572   -1.8010    0.0000 C   0  0  0  0  0  0  0  0  0  0  0  0
    1.0717   -1.3885    0.0000 C   0  0  0  0  0  0  0  0  0  0  0  0
    1.0717   -0.5635    0.0000 C   0  0  0  0  0  0  0  0  0  0  0  0
    0.3572   -0.1510    0.0000 C   0  0  0  0  0  0  0  0  0  0  0  0
   -0.3572   -0.5635    0.0000 C   0  0  0  0  0  0  0  0  0  0  0  0
    0.3572   -2.6260    0.0000 O   0  0  0  0  0  0  0  0  0  0  0  0
    1.0717   -3.0385    0.0000 C   0  0  0  0  0  0  0  0  0  0  0  0
    1.7862   -0.1510    0.0000 C   0  0  0  0  0  0  0  0  0  0  0  0
    1.7862    0.6740    0.0000 N   0  0  0  0  0  0  0  0  0  0  0  0
    1.0717    1.0865    0.0000 C   0  0  0  0  0  0  0  0  0  0  0  0
    0.3572    0.6740    0.0000 C   0  0  0  0  0  0  0  0  0  0  0  0
    2.5006    1.0865    0.0000 C   0  0  0  0  0  0  0  0  0  0  0  0
    3.2151    0.6740    0.0000 C   0  0  0  0  0  0  0  0  0  0  0  0
    3.9296    1.0865    0.0000 N   0  0  0  0  0  0  0  0  0  0  0  0
    4.6441    0.6740    0.0000 C   0  0  0  0  0  0  0  0  0  0  0  0
    3.9296    1.9115    0.0000 C   0  0  0  0  0  0  0  0  0  0  0  0
  1  2  4  0  0  0  0
  2  3  4  0  0  0  0
  3  4  4  0  0  0  0
  4  5  4  0  0  0  0
  5  6  4  0  0  0  0
  6  1  4  0  0  0  0
  4  7  1  0  0  0  0
  8  9  1  0  0  0  0
  9 10  1  0  0  0  0
 10  5  1  0  0  0  0
  7 11  1  0  0  0  0
  9 12  1  0  0  0  0
 10 13  2  0  0  0  0
 10 14  2  0  0  0  0
 11 15  4  0  0  0  0
 15 16  4  0  0  0  0
 16 17  4  0  0  0  0
 17 18  4  0  0  0  0
 18 19  4  0  0  0  0
 19 11  4  0  0  0  0
 15 20  1  0  0  0  0
 18 21  1  0  0  0  0
 21 22  1  0  0  0  0
 22 23  4  0  0  0  0
 23 24  4  0  0  0  0
 24 25  4  0  0  0  0
 25 26  4  0  0  0  0
 26 27  4  0  0  0  0
 27 22  4  0  0  0  0
 23 28  1  0  0  0  0
 28 29  1  0  0  0  0
 25 30  1  0  0  0  0
 30 31  1  0  0  0  0
 31 32  1  0  0  0  0
 32 33  1  0  0  0  0
 33 26  1  0  0  0  0
 31 34  1  0  0  0  0
 34 35  1  0  0  0  0
 35 36  1  0  0  0  0
 36 37  1  0  0  0  0
 36 38  1  0  0  0  0
M  END
> <From>
www.bindingDB.org

> <BindingDB Reactant_set_id>
490404

> <Ligand InChI>
InChI=1S/C27H35ClN6O3S/c1-18(2)38(35,36)25-9-7-6-8-22(25)30-26-21(28)16-29-27(32-26)31-23-14-19-10-11-34(13-12-33(3)4)17-20(19)15-24(23)37-5/h6-9,14-16,18H,10-13,17H2,1-5H3,(H2,29,30,31,32)

> <Ligand InChI Key>
HULYGZZDVZJGOH-UHFFFAOYSA-N

> <BindingDB MonomerID>
243391

> <BindingDB Ligand Name>
5-chloro-N2-(2-(2-(dimethylaminoethyl)-7-methoxy-1,2,3,4-tetrahydroisoquinolin-6-yl)-N4-2-(isopropylsulfonyl)phenyl)pyrimidine-2,4-diamine::US10053458, 23

> <Target Name Assigned by Curator or DataSource>
ALK tyrosine kinase receptor

> <Target Source Organism According to Curator or DataSource>
Homo sapiens

> <Ki (nM)>


> <IC50 (nM)>
<10.00

> <Kd (nM)>


> <EC50 (nM)>


> <kon (M-1-s-1)>


> <koff (s-1)>


> <pH>


> <Temp C>
25.00

> <Curation/DataSource>
US Patent

> <Article DOI>


> <PMID>


> <PubChem AID>


> <Patent Number>
US10053458

> <Authors>
Yun, CS; Kim, HR; Cho, SY; Jung, HJ; Lee, K; Chae, CH; Lee, CO; Park, CH; Kim, P; Hwang, JY; Ha, JD; Ahn, SJ

> <Institution>
KOREA RESEARCH INSTITUTE OF CHEMICAL TECHNOLOGY

> <Link to Ligand in BindingDB>
http://www.bindingdb.org/bind/chemsearch/marvin/MolStructure.jsp?monomerid=243391

> <Link to Ligand-Target Pair in BindingDB>
http://www.bindingdb.org/jsp/dbsearch/PrimarySearch_ki.jsp?energyterm=kJ/mole&tag=pol&polymerid=5809&target=ALK+tyrosine+kinase+receptor&column=ki&startPg=0&Increment=50&submit=Search

> <Link to Ligand-Target Pair in BindingDB>
http://www.bindingdb.org/jsp/dbsearch/PrimarySearch_ki.jsp?energyterm=kJ/mole&tag=r21&monomerid=243391&enzyme=ALK+tyrosine+kinase+receptor&column=ki&startPg=0&Increment=50&submit=Search

> <Ligand HET ID in PDB>


> <PDB ID(s) for Ligand-Target Complex>


> <PubChem CID>
129147984

> <PubChem SID>
376221774

> <ChEBI ID of Ligand>


> <ChEMBL ID of Ligand>


> <DrugBank ID of Ligand>


> <IUPHAR_GRAC ID of Ligand>


> <KEGG ID of Ligand>


> <ZINC ID of Ligand>


> <Number of Protein Chains in Target (>1 implies a multichain complex)>
1

> <BindingDB Target Chain Sequence>
MGAIGLLWLLPLLLSTAAVGSGMGTGQRAGSPAAGPPLQPREPLSYSRLQRKSLAVDFVVPSLFRVYARDLLLPPSSSELKAGRPEARGSLALDCAPLLRLLGPAPGVSWTAGSPAPAEARTLSRVLKGGSVRKLRRAKQLVLELGEEAILEGCVGPPGEAAVGLLQFNLSELFSWWIRQGEGRLRIRLMPEKKASEVGREGRLSAAIRASQPRLLFQIFGTGHSSLESPTNMPSPSPDYFTWNLTWIMKDSFPFLSHRSRYGLECSFDFPCELEYSPPLHDLRNQSWSWRRIPSEEASQMDLLDGPGAERSKEMPRGSFLLLNTSADSKHTILSPWMRSSSEHCTLAVSVHRHLQPSGRYIAQLLPHNEAAREILLMPTPGKHGWTVLQGRIGRPDNPFRVALEYISSGNRSLSAVDFFALKNCSEGTSPGSKMALQSSFTCWNGTVLQLGQACDFHQDCAQGEDESQMCRKLPVGFYCNFEDGFCGWTQGTLSPHTPQWQVRTLKDARFQDHQDHALLLSTTDVPASESATVTSATFPAPIKSSPCELRMSWLIRGVLRGNVSLVLVENKTGKEQGRMVWHVAAYEGLSLWQWMVLPLLDVSDRFWLQMVAWWGQGSRAIVAFDNISISLDCYLTISGEDKILQNTAPKSRNLFERNPNKELKPGENSPRQTPIFDPTVHWLFTTCGASGPHGPTQAQCNNAYQNSNLSVEVGSEGPLKGIQIWKVPATDTYSISGYGAAGGKGGKNTMMRSHGVSVLGIFNLEKDDMLYILVGQQGEDACPSTNQLIQKVCIGENNVIEEEIRVNRSVHEWAGGGGGGGGATYVFKMKDGVPVPLIIAAGGGGRAYGAKTDTFHPERLENNSSVLGLNGNSGAAGGGGGWNDNTSLLWAGKSLQEGATGGHSCPQAMKKWGWETRGGFGGGGGGCSSGGGGGGYIGGNAASNNDPEMDGEDGVSFISPLGILYTPALKVMEGHGEVNIKHYLNCSHCEVDECHMDPESHKVICFCDHGTVLAEDGVSCIVSPTPEPHLPLSLILSVVTSALVAALVLAFSGIMIVYRRKHQELQAMQMELQSPEYKLSKLRTSTIMTDYNPNYCFAGKTSSISDLKEVPRKNITLIRGLGHGAFGEVYEGQVSGMPNDPSPLQVAVKTLPEVCSEQDELDFLMEALIISKFNHQNIVRCIGVSLQSLPRFILLELMAGGDLKSFLRETRPRPSQPSSLAMLDLLHVARDIACGCQYLEENHFIHRDIAARNCLLTCPGPGRVAKIGDFGMARDIYRASYYRKGGCAMLPVKWMPPEAFMEGIFTSKTDTWSFGVLLWEIFSLGYMPYPSKSNQEVLEFVTSGGRMDPPKNCPGPVYRIMTQCWQHQPEDRPNFAIILERIEYCTQDPDVINTALPIEYGPLVEEEEKVPVRPKDPEGVPPLLVSQQAKREEERSPAAPPPLPTTSSGKAAKKPTAAEISVRVPRGPAVEGGHVNMAFSQSNPPSELHKVHGSRNKPTSLWNPTYGSWFTEKPTKKNNPIAKKEPHDRGNLGLEGSCTVPPNVATGRLPGASLLLEPSSLTANMKEVPLFRLRHFPCGNVNYGYQQQGLPLEAATAPGAGHYEDTILKSKNSMNQPGP

> <PDB ID(s) of Target Chain>
2XB7,2XBA,3AOX,5FTO,5FTQ,6E0R,6EBW,6EDL,6MX8

> <UniProt (SwissProt) Recommended Name of Target Chain>
ALK tyrosine kinase receptor

> <UniProt (SwissProt) Entry Name of Target Chain>
ALK_HUMAN

> <UniProt (SwissProt) Primary ID of Target Chain>
Q9UM73

> <UniProt (SwissProt) Secondary ID(s) of Target Chain>
Q4ZFX9,Q53QQ6,Q53RZ4,Q59FI3,Q9Y4K6

> <UniProt (SwissProt) Alternative ID(s) of Target Chain>


> <UniProt (TrEMBL) Submitted Name of Target Chain>


> <UniProt (TrEMBL) Entry Name of Target Chain>


> <UniProt (TrEMBL) Primary ID of Target Chain>


> <UniProt (TrEMBL) Secondary ID(s) of Target Chain>


> <UniProt (TrEMBL) Alternative ID(s) of Target Chain>


$$$$
00230001.cdx
  Mrv0541 10181809492D          

 39 43  0  0  0  0            999 V2000
   -4.2868    1.9115    0.0000 C   0  0  0  0  0  0  0  0  0  0  0  0
   -4.2868    1.0865    0.0000 C   0  0  0  0  0  0  0  0  0  0  0  0
   -3.5724    0.6740    0.0000 C   0  0  0  0  0  0  0  0  0  0  0  0
   -2.8579    1.0865    0.0000 C   0  0  0  0  0  0  0  0  0  0  0  0
   -2.8579    1.9115    0.0000 C   0  0  0  0  0  0  0  0  0  0  0  0
   -3.5724    2.3240    0.0000 C   0  0  0  0  0  0  0  0  0  0  0  0
   -2.1434    0.6740    0.0000 N   0  0  0  0  0  0  0  0  0  0  0  0
   -1.4289    1.0865    0.0000 C   0  0  0  0  0  0  0  0  0  0  0  0
   -1.4289    1.9115    0.0000 C   0  0  0  0  0  0  0  0  0  0  0  0
   -2.1434    2.3240    0.0000 S   0  0  0  0  0  0  0  0  0  0  0  0
   -2.1434   -0.1510    0.0000 C   0  0  0  0  0  0  0  0  0  0  0  0
   -0.7145    2.3240    0.0000 C   0  0  0  0  0  0  0  0  0  0  0  0
   -1.7309    3.0385    0.0000 O   0  0  0  0  0  0  0  0  0  0  0  0
   -2.7268    2.9074    0.0000 O   0  0  0  0  0  0  0  0  0  0  0  0
   -2.8579   -0.5635    0.0000 C   0  0  0  0  0  0  0  0  0  0  0  0
   -2.8579   -1.3885    0.0000 C   0  0  0  0  0  0  0  0  0  0  0  0
   -2.1434   -1.8010    0.0000 N   0  0  0  0  0  0  0  0  0  0  0  0
   -1.4289   -1.3885    0.0000 C   0  0  0  0  0  0  0  0  0  0  0  0
   -1.4289   -0.5635    0.0000 N   0  0  0  0  0  0  0  0  0  0  0  0
   -3.5724   -0.1510    0.0000 Cl  0  0  0  0  0  0  0  0  0  0  0  0
   -0.7145   -1.8010    0.0000 N   0  0  0  0  0  0  0  0  0  0  0  0
    0.0000   -1.3885    0.0000 C   0  0  0  0  0  0  0  0  0  0  0  0
    0.7145   -1.8010    0.0000 C   0  0  0  0  0  0  0  0  0  0  0  0
    1.4289   -1.3885    0.0000 C   0  0  0  0  0  0  0  0  0  0  0  0
    1.4289   -0.5635    0.0000 C   0  0  0  0  0  0  0  0  0  0  0  0
    0.7145   -0.1510    0.0000 C   0  0  0  0  0  0  0  0  0  0  0  0
    0.0000   -0.5635    0.0000 C   0  0  0  0  0  0  0  0  0  0  0  0
    0.7145   -2.6260    0.0000 O   0  0  0  0  0  0  0  0  0  0  0  0
    1.4289   -3.0385    0.0000 C   0  0  0  0  0  0  0  0  0  0  0  0
    2.1434   -0.1510    0.0000 C   0  0  0  0  0  0  0  0  0  0  0  0
    2.1434    0.6740    0.0000 N   0  0  0  0  0  0  0  0  0  0  0  0
    1.4289    1.0865    0.0000 C   0  0  0  0  0  0  0  0  0  0  0  0
    0.7145    0.6740    0.0000 C   0  0  0  0  0  0  0  0  0  0  0  0
    2.8579    1.0865    0.0000 C   0  0  0  0  0  0  0  0  0  0  0  0
    3.5724    0.6740    0.0000 C   0  0  0  0  0  0  0  0  0  0  0  0
    4.2868    1.0865    0.0000 C   0  0  0  0  0  0  0  0  0  0  0  0
    4.2868    1.9115    0.0000 N   0  0  0  0  0  0  0  0  0  0  0  0
    3.5724    2.3240    0.0000 C   0  0  0  0  0  0  0  0  0  0  0  0
    2.8579    1.9115    0.0000 C   0  0  0  0  0  0  0  0  0  0  0  0
  1  2  4  0  0  0  0
  2  3  4  0  0  0  0
  3  4  4  0  0  0  0
  4  5  4  0  0  0  0
  5  6  4  0  0  0  0
  6  1  4  0  0  0  0
  4  7  1  0  0  0  0
  8  9  1  0  0  0  0
  9 10  1  0  0  0  0
 10  5  1  0  0  0  0
  7 11  1  0  0  0  0
  9 12  1  0  0  0  0
 10 13  2  0  0  0  0
 10 14  2  0  0  0  0
 11 15  4  0  0  0  0
 15 16  4  0  0  0  0
 16 17  4  0  0  0  0
 17 18  4  0  0  0  0
 18 19  4  0  0  0  0
 19 11  4  0  0  0  0
 15 20  1  0  0  0  0
 18 21  1  0  0  0  0
 21 22  1  0  0  0  0
 22 23  4  0  0  0  0
 23 24  4  0  0  0  0
 24 25  4  0  0  0  0
 25 26  4  0  0  0  0
 26 27  4  0  0  0  0
 27 22  4  0  0  0  0
 23 28  1  0  0  0  0
 28 29  1  0  0  0  0
 25 30  1  0  0  0  0
 30 31  1  0  0  0  0
 31 32  1  0  0  0  0
 32 33  1  0  0  0  0
 33 26  1  0  0  0  0
 31 34  1  0  0  0  0
 34 35  1  0  0  0  0
 35 36  1  0  0  0  0
 36 37  1  0  0  0  0
 37 38  1  0  0  0  0
 38 39  1  0  0  0  0
 39 34  1  0  0  0  0
M  END
> <From>
www.bindingDB.org

> <BindingDB Reactant_set_id>
490406

> <Ligand InChI>
InChI=1S/C28H35ClN6O3S/c1-18(2)39(36,37)26-7-5-4-6-23(26)32-27-22(29)16-31-28(34-27)33-24-14-19-10-13-35(21-8-11-30-12-9-21)17-20(19)15-25(24)38-3/h4-7,14-16,18,21,30H,8-13,17H2,1-3H3,(H2,31,32,33,34)

> <Ligand InChI Key>
KLPNWXZRNUVWII-UHFFFAOYSA-N

> <BindingDB MonomerID>
243392

> <BindingDB Ligand Name>
5-chloro-N4-2-(isopropylsulfonyl)phenyl)-N2-(7-methoxy-2-(piperidin-4-yl)-1,2,3,4-tetrahydroisoquinolin-6-yl)pyrimidine-2,4-diamine::US10053458, 24

> <Target Name Assigned by Curator or DataSource>
ALK tyrosine kinase receptor

> <Target Source Organism According to Curator or DataSource>
Homo sapiens

> <Ki (nM)>


> <IC50 (nM)>
<10.00

> <Kd (nM)>


> <EC50 (nM)>


> <kon (M-1-s-1)>


> <koff (s-1)>


> <pH>


> <Temp C>
25.00

> <Curation/DataSource>
US Patent

> <Article DOI>


> <PMID>


> <PubChem AID>


> <Patent Number>
US10053458

> <Authors>
Yun, CS; Kim, HR; Cho, SY; Jung, HJ; Lee, K; Chae, CH; Lee, CO; Park, CH; Kim, P; Hwang, JY; Ha, JD; Ahn, SJ

> <Institution>
KOREA RESEARCH INSTITUTE OF CHEMICAL TECHNOLOGY

> <Link to Ligand in BindingDB>
http://www.bindingdb.org/bind/chemsearch/marvin/MolStructure.jsp?monomerid=243392

> <Link to Ligand-Target Pair in BindingDB>
http://www.bindingdb.org/jsp/dbsearch/PrimarySearch_ki.jsp?energyterm=kJ/mole&tag=pol&polymerid=5809&target=ALK+tyrosine+kinase+receptor&column=ki&startPg=0&Increment=50&submit=Search

> <Link to Ligand-Target Pair in BindingDB>
http://www.bindingdb.org/jsp/dbsearch/PrimarySearch_ki.jsp?energyterm=kJ/mole&tag=r21&monomerid=243392&enzyme=ALK+tyrosine+kinase+receptor&column=ki&startPg=0&Increment=50&submit=Search

> <Ligand HET ID in PDB>


> <PDB ID(s) for Ligand-Target Complex>


> <PubChem CID>
129048565

> <PubChem SID>
376221775

> <ChEBI ID of Ligand>


> <ChEMBL ID of Ligand>


> <DrugBank ID of Ligand>


> <IUPHAR_GRAC ID of Ligand>


> <KEGG ID of Ligand>


> <ZINC ID of Ligand>


> <Number of Protein Chains in Target (>1 implies a multichain complex)>
1

> <BindingDB Target Chain Sequence>
MGAIGLLWLLPLLLSTAAVGSGMGTGQRAGSPAAGPPLQPREPLSYSRLQRKSLAVDFVVPSLFRVYARDLLLPPSSSELKAGRPEARGSLALDCAPLLRLLGPAPGVSWTAGSPAPAEARTLSRVLKGGSVRKLRRAKQLVLELGEEAILEGCVGPPGEAAVGLLQFNLSELFSWWIRQGEGRLRIRLMPEKKASEVGREGRLSAAIRASQPRLLFQIFGTGHSSLESPTNMPSPSPDYFTWNLTWIMKDSFPFLSHRSRYGLECSFDFPCELEYSPPLHDLRNQSWSWRRIPSEEASQMDLLDGPGAERSKEMPRGSFLLLNTSADSKHTILSPWMRSSSEHCTLAVSVHRHLQPSGRYIAQLLPHNEAAREILLMPTPGKHGWTVLQGRIGRPDNPFRVALEYISSGNRSLSAVDFFALKNCSEGTSPGSKMALQSSFTCWNGTVLQLGQACDFHQDCAQGEDESQMCRKLPVGFYCNFEDGFCGWTQGTLSPHTPQWQVRTLKDARFQDHQDHALLLSTTDVPASESATVTSATFPAPIKSSPCELRMSWLIRGVLRGNVSLVLVENKTGKEQGRMVWHVAAYEGLSLWQWMVLPLLDVSDRFWLQMVAWWGQGSRAIVAFDNISISLDCYLTISGEDKILQNTAPKSRNLFERNPNKELKPGENSPRQTPIFDPTVHWLFTTCGASGPHGPTQAQCNNAYQNSNLSVEVGSEGPLKGIQIWKVPATDTYSISGYGAAGGKGGKNTMMRSHGVSVLGIFNLEKDDMLYILVGQQGEDACPSTNQLIQKVCIGENNVIEEEIRVNRSVHEWAGGGGGGGGATYVFKMKDGVPVPLIIAAGGGGRAYGAKTDTFHPERLENNSSVLGLNGNSGAAGGGGGWNDNTSLLWAGKSLQEGATGGHSCPQAMKKWGWETRGGFGGGGGGCSSGGGGGGYIGGNAASNNDPEMDGEDGVSFISPLGILYTPALKVMEGHGEVNIKHYLNCSHCEVDECHMDPESHKVICFCDHGTVLAEDGVSCIVSPTPEPHLPLSLILSVVTSALVAALVLAFSGIMIVYRRKHQELQAMQMELQSPEYKLSKLRTSTIMTDYNPNYCFAGKTSSISDLKEVPRKNITLIRGLGHGAFGEVYEGQVSGMPNDPSPLQVAVKTLPEVCSEQDELDFLMEALIISKFNHQNIVRCIGVSLQSLPRFILLELMAGGDLKSFLRETRPRPSQPSSLAMLDLLHVARDIACGCQYLEENHFIHRDIAARNCLLTCPGPGRVAKIGDFGMARDIYRASYYRKGGCAMLPVKWMPPEAFMEGIFTSKTDTWSFGVLLWEIFSLGYMPYPSKSNQEVLEFVTSGGRMDPPKNCPGPVYRIMTQCWQHQPEDRPNFAIILERIEYCTQDPDVINTALPIEYGPLVEEEEKVPVRPKDPEGVPPLLVSQQAKREEERSPAAPPPLPTTSSGKAAKKPTAAEISVRVPRGPAVEGGHVNMAFSQSNPPSELHKVHGSRNKPTSLWNPTYGSWFTEKPTKKNNPIAKKEPHDRGNLGLEGSCTVPPNVATGRLPGASLLLEPSSLTANMKEVPLFRLRHFPCGNVNYGYQQQGLPLEAATAPGAGHYEDTILKSKNSMNQPGP

> <PDB ID(s) of Target Chain>
2XB7,2XBA,3AOX,5FTO,5FTQ,6E0R,6EBW,6EDL,6MX8

> <UniProt (SwissProt) Recommended Name of Target Chain>
ALK tyrosine kinase receptor

> <UniProt (SwissProt) Entry Name of Target Chain>
ALK_HUMAN

> <UniProt (SwissProt) Primary ID of Target Chain>
Q9UM73

> <UniProt (SwissProt) Secondary ID(s) of Target Chain>
Q4ZFX9,Q53QQ6,Q53RZ4,Q59FI3,Q9Y4K6

> <UniProt (SwissProt) Alternative ID(s) of Target Chain>


> <UniProt (TrEMBL) Submitted Name of Target Chain>


> <UniProt (TrEMBL) Entry Name of Target Chain>


> <UniProt (TrEMBL) Primary ID of Target Chain>


> <UniProt (TrEMBL) Secondary ID(s) of Target Chain>


> <UniProt (TrEMBL) Alternative ID(s) of Target Chain>


$$$$
00235001.cdx
  Mrv0541 10181809492D          

 34 37  0  0  0  0            999 V2000
   -3.5724    1.9115    0.0000 C   0  0  0  0  0  0  0  0  0  0  0  0
   -3.5724    1.0865    0.0000 C   0  0  0  0  0  0  0  0  0  0  0  0
   -2.8579    0.6740    0.0000 C   0  0  0  0  0  0  0  0  0  0  0  0
   -2.1434    1.0865    0.0000 C   0  0  0  0  0  0  0  0  0  0  0  0
   -2.1434    1.9115    0.0000 C   0  0  0  0  0  0  0  0  0  0  0  0
   -2.8579    2.3240    0.0000 C   0  0  0  0  0  0  0  0  0  0  0  0
   -1.4289    0.6740    0.0000 N   0  0  0  0  0  0  0  0  0  0  0  0
   -0.7145    1.0865    0.0000 C   0  0  0  0  0  0  0  0  0  0  0  0
   -0.7145    1.9115    0.0000 C   0  0  0  0  0  0  0  0  0  0  0  0
   -1.4289    2.3240    0.0000 S   0  0  0  0  0  0  0  0  0  0  0  0
   -1.4289   -0.1510    0.0000 C   0  0  0  0  0  0  0  0  0  0  0  0
    0.0000    2.3240    0.0000 C   0  0  0  0  0  0  0  0  0  0  0  0
   -1.0164    3.0385    0.0000 O   0  0  0  0  0  0  0  0  0  0  0  0
   -2.0123    2.9074    0.0000 O   0  0  0  0  0  0  0  0  0  0  0  0
   -2.1434   -0.5635    0.0000 C   0  0  0  0  0  0  0  0  0  0  0  0
   -2.1434   -1.3885    0.0000 C   0  0  0  0  0  0  0  0  0  0  0  0
   -1.4289   -1.8010    0.0000 N   0  0  0  0  0  0  0  0  0  0  0  0
   -0.7145   -1.3885    0.0000 C   0  0  0  0  0  0  0  0  0  0  0  0
   -0.7145   -0.5635    0.0000 N   0  0  0  0  0  0  0  0  0  0  0  0
   -2.8579   -0.1510    0.0000 Cl  0  0  0  0  0  0  0  0  0  0  0  0
    0.0000   -1.8010    0.0000 N   0  0  0  0  0  0  0  0  0  0  0  0
    0.7145   -1.3885    0.0000 C   0  0  0  0  0  0  0  0  0  0  0  0
    1.4289   -1.8010    0.0000 C   0  0  0  0  0  0  0  0  0  0  0  0
    2.1434   -1.3885    0.0000 C   0  0  0  0  0  0  0  0  0  0  0  0
    2.1434   -0.5635    0.0000 C   0  0  0  0  0  0  0  0  0  0  0  0
    1.4289   -0.1510    0.0000 C   0  0  0  0  0  0  0  0  0  0  0  0
    0.7145   -0.5635    0.0000 C   0  0  0  0  0  0  0  0  0  0  0  0
    1.4289   -2.6260    0.0000 O   0  0  0  0  0  0  0  0  0  0  0  0
    2.1434   -3.0385    0.0000 C   0  0  0  0  0  0  0  0  0  0  0  0
    2.8579   -0.1510    0.0000 C   0  0  0  0  0  0  0  0  0  0  0  0
    2.8579    0.6740    0.0000 N   0  0  0  0  0  0  0  0  0  0  0  0
    2.1434    1.0865    0.0000 C   0  0  0  0  0  0  0  0  0  0  0  0
    1.4289    0.6740    0.0000 C   0  0  0  0  0  0  0  0  0  0  0  0
    3.5724   -0.5635    0.0000 C   0  0  0  0  0  0  0  0  0  0  0  0
  1  2  4  0  0  0  0
  2  3  4  0  0  0  0
  3  4  4  0  0  0  0
  4  5  4  0  0  0  0
  5  6  4  0  0  0  0
  6  1  4  0  0  0  0
  4  7  1  0  0  0  0
  8  9  1  0  0  0  0
  9 10  1  0  0  0  0
 10  5  1  0  0  0  0
  7 11  1  0  0  0  0
  9 12  1  0  0  0  0
 10 13  2  0  0  0  0
 10 14  2  0  0  0  0
 11 15  4  0  0  0  0
 15 16  4  0  0  0  0
 16 17  4  0  0  0  0
 17 18  4  0  0  0  0
 18 19  4  0  0  0  0
 19 11  4  0  0  0  0
 15 20  1  0  0  0  0
 18 21  1  0  0  0  0
 21 22  1  0  0  0  0
 22 23  4  0  0  0  0
 23 24  4  0  0  0  0
 24 25  4  0  0  0  0
 25 26  4  0  0  0  0
 26 27  4  0  0  0  0
 27 22  4  0  0  0  0
 23 28  1  0  0  0  0
 28 29  1  0  0  0  0
 25 30  1  0  0  0  0
 30 31  1  0  0  0  0
 31 32  1  0  0  0  0
 32 33  1  0  0  0  0
 33 26  1  0  0  0  0
 30 34  1  0  0  0  0
M  END
> <From>
www.bindingDB.org

> <BindingDB Reactant_set_id>
490408

> <Ligand InChI>
InChI=1S/C24H28ClN5O3S/c1-14(2)34(31,32)22-8-6-5-7-19(22)28-23-18(25)13-27-24(30-23)29-20-11-16-9-10-26-15(3)17(16)12-21(20)33-4/h5-8,11-15,26H,9-10H2,1-4H3,(H2,27,28,29,30)

> <Ligand InChI Key>
CMWJWRGFIOGWKU-UHFFFAOYSA-N

> <BindingDB MonomerID>
243393

> <BindingDB Ligand Name>
5-chloro-N4-2-(isopropylsulfonyl)phenyl)-N2-(7-methoxy-1-methyl-1,2,3,4-tetrahydroisoquinolin-6-yl)pyrimidine-2,4-diamine::US10053458, 25

> <Target Name Assigned by Curator or DataSource>
ALK tyrosine kinase receptor

> <Target Source Organism According to Curator or DataSource>
Homo sapiens

> <Ki (nM)>


> <IC50 (nM)>
 0.240

> <Kd (nM)>


> <EC50 (nM)>


> <kon (M-1-s-1)>


> <koff (s-1)>


> <pH>


> <Temp C>
25.00

> <Curation/DataSource>
US Patent

> <Article DOI>


> <PMID>


> <PubChem AID>


> <Patent Number>
US10053458

> <Authors>
Yun, CS; Kim, HR; Cho, SY; Jung, HJ; Lee, K; Chae, CH; Lee, CO; Park, CH; Kim, P; Hwang, JY; Ha, JD; Ahn, SJ

> <Institution>
KOREA RESEARCH INSTITUTE OF CHEMICAL TECHNOLOGY

> <Link to Ligand in BindingDB>
http://www.bindingdb.org/bind/chemsearch/marvin/MolStructure.jsp?monomerid=243393

> <Link to Ligand-Target Pair in BindingDB>
http://www.bindingdb.org/jsp/dbsearch/PrimarySearch_ki.jsp?energyterm=kJ/mole&tag=pol&polymerid=5809&target=ALK+tyrosine+kinase+receptor&column=ki&startPg=0&Increment=50&submit=Search

> <Link to Ligand-Target Pair in BindingDB>
http://www.bindingdb.org/jsp/dbsearch/PrimarySearch_ki.jsp?energyterm=kJ/mole&tag=r21&monomerid=243393&enzyme=ALK+tyrosine+kinase+receptor&column=ki&startPg=0&Increment=50&submit=Search

> <Ligand HET ID in PDB>


> <PDB ID(s) for Ligand-Target Complex>


> <PubChem CID>
129048557

> <PubChem SID>
376221776

> <ChEBI ID of Ligand>


> <ChEMBL ID of Ligand>


> <DrugBank ID of Ligand>


> <IUPHAR_GRAC ID of Ligand>


> <KEGG ID of Ligand>


> <ZINC ID of Ligand>


> <Number of Protein Chains in Target (>1 implies a multichain complex)>
1

> <BindingDB Target Chain Sequence>
MGAIGLLWLLPLLLSTAAVGSGMGTGQRAGSPAAGPPLQPREPLSYSRLQRKSLAVDFVVPSLFRVYARDLLLPPSSSELKAGRPEARGSLALDCAPLLRLLGPAPGVSWTAGSPAPAEARTLSRVLKGGSVRKLRRAKQLVLELGEEAILEGCVGPPGEAAVGLLQFNLSELFSWWIRQGEGRLRIRLMPEKKASEVGREGRLSAAIRASQPRLLFQIFGTGHSSLESPTNMPSPSPDYFTWNLTWIMKDSFPFLSHRSRYGLECSFDFPCELEYSPPLHDLRNQSWSWRRIPSEEASQMDLLDGPGAERSKEMPRGSFLLLNTSADSKHTILSPWMRSSSEHCTLAVSVHRHLQPSGRYIAQLLPHNEAAREILLMPTPGKHGWTVLQGRIGRPDNPFRVALEYISSGNRSLSAVDFFALKNCSEGTSPGSKMALQSSFTCWNGTVLQLGQACDFHQDCAQGEDESQMCRKLPVGFYCNFEDGFCGWTQGTLSPHTPQWQVRTLKDARFQDHQDHALLLSTTDVPASESATVTSATFPAPIKSSPCELRMSWLIRGVLRGNVSLVLVENKTGKEQGRMVWHVAAYEGLSLWQWMVLPLLDVSDRFWLQMVAWWGQGSRAIVAFDNISISLDCYLTISGEDKILQNTAPKSRNLFERNPNKELKPGENSPRQTPIFDPTVHWLFTTCGASGPHGPTQAQCNNAYQNSNLSVEVGSEGPLKGIQIWKVPATDTYSISGYGAAGGKGGKNTMMRSHGVSVLGIFNLEKDDMLYILVGQQGEDACPSTNQLIQKVCIGENNVIEEEIRVNRSVHEWAGGGGGGGGATYVFKMKDGVPVPLIIAAGGGGRAYGAKTDTFHPERLENNSSVLGLNGNSGAAGGGGGWNDNTSLLWAGKSLQEGATGGHSCPQAMKKWGWETRGGFGGGGGGCSSGGGGGGYIGGNAASNNDPEMDGEDGVSFISPLGILYTPALKVMEGHGEVNIKHYLNCSHCEVDECHMDPESHKVICFCDHGTVLAEDGVSCIVSPTPEPHLPLSLILSVVTSALVAALVLAFSGIMIVYRRKHQELQAMQMELQSPEYKLSKLRTSTIMTDYNPNYCFAGKTSSISDLKEVPRKNITLIRGLGHGAFGEVYEGQVSGMPNDPSPLQVAVKTLPEVCSEQDELDFLMEALIISKFNHQNIVRCIGVSLQSLPRFILLELMAGGDLKSFLRETRPRPSQPSSLAMLDLLHVARDIACGCQYLEENHFIHRDIAARNCLLTCPGPGRVAKIGDFGMARDIYRASYYRKGGCAMLPVKWMPPEAFMEGIFTSKTDTWSFGVLLWEIFSLGYMPYPSKSNQEVLEFVTSGGRMDPPKNCPGPVYRIMTQCWQHQPEDRPNFAIILERIEYCTQDPDVINTALPIEYGPLVEEEEKVPVRPKDPEGVPPLLVSQQAKREEERSPAAPPPLPTTSSGKAAKKPTAAEISVRVPRGPAVEGGHVNMAFSQSNPPSELHKVHGSRNKPTSLWNPTYGSWFTEKPTKKNNPIAKKEPHDRGNLGLEGSCTVPPNVATGRLPGASLLLEPSSLTANMKEVPLFRLRHFPCGNVNYGYQQQGLPLEAATAPGAGHYEDTILKSKNSMNQPGP

> <PDB ID(s) of Target Chain>
2XB7,2XBA,3AOX,5FTO,5FTQ,6E0R,6EBW,6EDL,6MX8

> <UniProt (SwissProt) Recommended Name of Target Chain>
ALK tyrosine kinase receptor

> <UniProt (SwissProt) Entry Name of Target Chain>
ALK_HUMAN

> <UniProt (SwissProt) Primary ID of Target Chain>
Q9UM73

> <UniProt (SwissProt) Secondary ID(s) of Target Chain>
Q4ZFX9,Q53QQ6,Q53RZ4,Q59FI3,Q9Y4K6

> <UniProt (SwissProt) Alternative ID(s) of Target Chain>


> <UniProt (TrEMBL) Submitted Name of Target Chain>


> <UniProt (TrEMBL) Entry Name of Target Chain>


> <UniProt (TrEMBL) Primary ID of Target Chain>


> <UniProt (TrEMBL) Secondary ID(s) of Target Chain>


> <UniProt (TrEMBL) Alternative ID(s) of Target Chain>


$$$$
00236001.cdx
  Mrv0541 10181809492D          

 37 40  0  0  0  0            999 V2000
   -3.9296    1.9115    0.0000 C   0  0  0  0  0  0  0  0  0  0  0  0
   -3.9296    1.0865    0.0000 C   0  0  0  0  0  0  0  0  0  0  0  0
   -3.2151    0.6740    0.0000 C   0  0  0  0  0  0  0  0  0  0  0  0
   -2.5006    1.0865    0.0000 C   0  0  0  0  0  0  0  0  0  0  0  0
   -2.5006    1.9115    0.0000 C   0  0  0  0  0  0  0  0  0  0  0  0
   -3.2151    2.3240    0.0000 C   0  0  0  0  0  0  0  0  0  0  0  0
   -1.7862    0.6740    0.0000 N   0  0  0  0  0  0  0  0  0  0  0  0
   -1.0717    1.0865    0.0000 C   0  0  0  0  0  0  0  0  0  0  0  0
   -1.0717    1.9115    0.0000 C   0  0  0  0  0  0  0  0  0  0  0  0
   -1.7862    2.3240    0.0000 S   0  0  0  0  0  0  0  0  0  0  0  0
   -1.7862   -0.1510    0.0000 C   0  0  0  0  0  0  0  0  0  0  0  0
   -0.3572    2.3240    0.0000 C   0  0  0  0  0  0  0  0  0  0  0  0
   -1.3737    3.0385    0.0000 O   0  0  0  0  0  0  0  0  0  0  0  0
   -2.3695    2.9074    0.0000 O   0  0  0  0  0  0  0  0  0  0  0  0
   -2.5006   -0.5635    0.0000 C   0  0  0  0  0  0  0  0  0  0  0  0
   -2.5006   -1.3885    0.0000 C   0  0  0  0  0  0  0  0  0  0  0  0
   -1.7862   -1.8010    0.0000 N   0  0  0  0  0  0  0  0  0  0  0  0
   -1.0717   -1.3885    0.0000 C   0  0  0  0  0  0  0  0  0  0  0  0
   -1.0717   -0.5635    0.0000 N   0  0  0  0  0  0  0  0  0  0  0  0
   -3.2151   -0.1510    0.0000 Cl  0  0  0  0  0  0  0  0  0  0  0  0
   -0.3572   -1.8010    0.0000 N   0  0  0  0  0  0  0  0  0  0  0  0
    0.3572   -1.3885    0.0000 C   0  0  0  0  0  0  0  0  0  0  0  0
    1.0717   -1.8010    0.0000 C   0  0  0  0  0  0  0  0  0  0  0  0
    1.7862   -1.3885    0.0000 C   0  0  0  0  0  0  0  0  0  0  0  0
    1.7862   -0.5635    0.0000 C   0  0  0  0  0  0  0  0  0  0  0  0
    1.0717   -0.1510    0.0000 C   0  0  0  0  0  0  0  0  0  0  0  0
    0.3572   -0.5635    0.0000 C   0  0  0  0  0  0  0  0  0  0  0  0
    1.0717   -2.6260    0.0000 O   0  0  0  0  0  0  0  0  0  0  0  0
    1.7862   -3.0385    0.0000 C   0  0  0  0  0  0  0  0  0  0  0  0
    2.5007   -0.1510    0.0000 C   0  0  0  0  0  0  0  0  0  0  0  0
    2.5006    0.6740    0.0000 N   0  0  0  0  0  0  0  0  0  0  0  0
    1.7862    1.0865    0.0000 C   0  0  0  0  0  0  0  0  0  0  0  0
    1.0717    0.6740    0.0000 C   0  0  0  0  0  0  0  0  0  0  0  0
    3.2151   -0.5635    0.0000 C   0  0  0  0  0  0  0  0  0  0  0  0
    3.9296   -0.9760    0.0000 F   0  0  0  0  0  0  0  0  0  0  0  0
    2.8027   -1.2780    0.0000 F   0  0  0  0  0  0  0  0  0  0  0  0
    3.6276    0.1510    0.0000 F   0  0  0  0  0  0  0  0  0  0  0  0
  1  2  4  0  0  0  0
  2  3  4  0  0  0  0
  3  4  4  0  0  0  0
  4  5  4  0  0  0  0
  5  6  4  0  0  0  0
  6  1  4  0  0  0  0
  4  7  1  0  0  0  0
  8  9  1  0  0  0  0
  9 10  1  0  0  0  0
 10  5  1  0  0  0  0
  7 11  1  0  0  0  0
  9 12  1  0  0  0  0
 10 13  2  0  0  0  0
 10 14  2  0  0  0  0
 11 15  4  0  0  0  0
 15 16  4  0  0  0  0
 16 17  4  0  0  0  0
 17 18  4  0  0  0  0
 18 19  4  0  0  0  0
 19 11  4  0  0  0  0
 15 20  1  0  0  0  0
 18 21  1  0  0  0  0
 21 22  1  0  0  0  0
 22 23  4  0  0  0  0
 23 24  4  0  0  0  0
 24 25  4  0  0  0  0
 25 26  4  0  0  0  0
 26 27  4  0  0  0  0
 27 22  4  0  0  0  0
 23 28  1  0  0  0  0
 28 29  1  0  0  0  0
 25 30  1  0  0  0  0
 30 31  1  0  0  0  0
 31 32  1  0  0  0  0
 32 33  1  0  0  0  0
 33 26  1  0  0  0  0
 30 34  1  0  0  0  0
 34 35  1  0  0  0  0
 34 36  1  0  0  0  0
 34 37  1  0  0  0  0
M  END
> <From>
www.bindingDB.org

> <BindingDB Reactant_set_id>
490410

> <Ligand InChI>
InChI=1S/C24H25ClF3N5O3S/c1-13(2)37(34,35)20-7-5-4-6-17(20)31-22-16(25)12-30-23(33-22)32-18-10-14-8-9-29-21(24(26,27)28)15(14)11-19(18)36-3/h4-7,10-13,21,29H,8-9H2,1-3H3,(H2,30,31,32,33)

> <Ligand InChI Key>
VYVRQWUYGMPDTF-UHFFFAOYSA-N

> <BindingDB MonomerID>
243394

> <BindingDB Ligand Name>
5-chloro-N4-2-(isopropylsulfonyl)phenyl)-N2-(7-methoxy-1-trifluoromethyl-1,2,3,4-tetrahydroisoquinolin-6-yl)pyrimidine-2,4-diamine::US10053458, 26

> <Target Name Assigned by Curator or DataSource>
ALK tyrosine kinase receptor

> <Target Source Organism According to Curator or DataSource>
Homo sapiens

> <Ki (nM)>


> <IC50 (nM)>
<10.00

> <Kd (nM)>


> <EC50 (nM)>


> <kon (M-1-s-1)>


> <koff (s-1)>


> <pH>


> <Temp C>
25.00

> <Curation/DataSource>
US Patent

> <Article DOI>


> <PMID>


> <PubChem AID>


> <Patent Number>
US10053458

> <Authors>
Yun, CS; Kim, HR; Cho, SY; Jung, HJ; Lee, K; Chae, CH; Lee, CO; Park, CH; Kim, P; Hwang, JY; Ha, JD; Ahn, SJ

> <Institution>
KOREA RESEARCH INSTITUTE OF CHEMICAL TECHNOLOGY

> <Link to Ligand in BindingDB>
http://www.bindingdb.org/bind/chemsearch/marvin/MolStructure.jsp?monomerid=243394

> <Link to Ligand-Target Pair in BindingDB>
http://www.bindingdb.org/jsp/dbsearch/PrimarySearch_ki.jsp?energyterm=kJ/mole&tag=pol&polymerid=5809&target=ALK+tyrosine+kinase+receptor&column=ki&startPg=0&Increment=50&submit=Search

> <Link to Ligand-Target Pair in BindingDB>
http://www.bindingdb.org/jsp/dbsearch/PrimarySearch_ki.jsp?energyterm=kJ/mole&tag=r21&monomerid=243394&enzyme=ALK+tyrosine+kinase+receptor&column=ki&startPg=0&Increment=50&submit=Search

> <Ligand HET ID in PDB>


> <PDB ID(s) for Ligand-Target Complex>


> <PubChem CID>
129048554

> <PubChem SID>
376221777

> <ChEBI ID of Ligand>


> <ChEMBL ID of Ligand>


> <DrugBank ID of Ligand>


> <IUPHAR_GRAC ID of Ligand>


> <KEGG ID of Ligand>


> <ZINC ID of Ligand>


> <Number of Protein Chains in Target (>1 implies a multichain complex)>
1

> <BindingDB Target Chain Sequence>
MGAIGLLWLLPLLLSTAAVGSGMGTGQRAGSPAAGPPLQPREPLSYSRLQRKSLAVDFVVPSLFRVYARDLLLPPSSSELKAGRPEARGSLALDCAPLLRLLGPAPGVSWTAGSPAPAEARTLSRVLKGGSVRKLRRAKQLVLELGEEAILEGCVGPPGEAAVGLLQFNLSELFSWWIRQGEGRLRIRLMPEKKASEVGREGRLSAAIRASQPRLLFQIFGTGHSSLESPTNMPSPSPDYFTWNLTWIMKDSFPFLSHRSRYGLECSFDFPCELEYSPPLHDLRNQSWSWRRIPSEEASQMDLLDGPGAERSKEMPRGSFLLLNTSADSKHTILSPWMRSSSEHCTLAVSVHRHLQPSGRYIAQLLPHNEAAREILLMPTPGKHGWTVLQGRIGRPDNPFRVALEYISSGNRSLSAVDFFALKNCSEGTSPGSKMALQSSFTCWNGTVLQLGQACDFHQDCAQGEDESQMCRKLPVGFYCNFEDGFCGWTQGTLSPHTPQWQVRTLKDARFQDHQDHALLLSTTDVPASESATVTSATFPAPIKSSPCELRMSWLIRGVLRGNVSLVLVENKTGKEQGRMVWHVAAYEGLSLWQWMVLPLLDVSDRFWLQMVAWWGQGSRAIVAFDNISISLDCYLTISGEDKILQNTAPKSRNLFERNPNKELKPGENSPRQTPIFDPTVHWLFTTCGASGPHGPTQAQCNNAYQNSNLSVEVGSEGPLKGIQIWKVPATDTYSISGYGAAGGKGGKNTMMRSHGVSVLGIFNLEKDDMLYILVGQQGEDACPSTNQLIQKVCIGENNVIEEEIRVNRSVHEWAGGGGGGGGATYVFKMKDGVPVPLIIAAGGGGRAYGAKTDTFHPERLENNSSVLGLNGNSGAAGGGGGWNDNTSLLWAGKSLQEGATGGHSCPQAMKKWGWETRGGFGGGGGGCSSGGGGGGYIGGNAASNNDPEMDGEDGVSFISPLGILYTPALKVMEGHGEVNIKHYLNCSHCEVDECHMDPESHKVICFCDHGTVLAEDGVSCIVSPTPEPHLPLSLILSVVTSALVAALVLAFSGIMIVYRRKHQELQAMQMELQSPEYKLSKLRTSTIMTDYNPNYCFAGKTSSISDLKEVPRKNITLIRGLGHGAFGEVYEGQVSGMPNDPSPLQVAVKTLPEVCSEQDELDFLMEALIISKFNHQNIVRCIGVSLQSLPRFILLELMAGGDLKSFLRETRPRPSQPSSLAMLDLLHVARDIACGCQYLEENHFIHRDIAARNCLLTCPGPGRVAKIGDFGMARDIYRASYYRKGGCAMLPVKWMPPEAFMEGIFTSKTDTWSFGVLLWEIFSLGYMPYPSKSNQEVLEFVTSGGRMDPPKNCPGPVYRIMTQCWQHQPEDRPNFAIILERIEYCTQDPDVINTALPIEYGPLVEEEEKVPVRPKDPEGVPPLLVSQQAKREEERSPAAPPPLPTTSSGKAAKKPTAAEISVRVPRGPAVEGGHVNMAFSQSNPPSELHKVHGSRNKPTSLWNPTYGSWFTEKPTKKNNPIAKKEPHDRGNLGLEGSCTVPPNVATGRLPGASLLLEPSSLTANMKEVPLFRLRHFPCGNVNYGYQQQGLPLEAATAPGAGHYEDTILKSKNSMNQPGP

> <PDB ID(s) of Target Chain>
2XB7,2XBA,3AOX,5FTO,5FTQ,6E0R,6EBW,6EDL,6MX8

> <UniProt (SwissProt) Recommended Name of Target Chain>
ALK tyrosine kinase receptor

> <UniProt (SwissProt) Entry Name of Target Chain>
ALK_HUMAN

> <UniProt (SwissProt) Primary ID of Target Chain>
Q9UM73

> <UniProt (SwissProt) Secondary ID(s) of Target Chain>
Q4ZFX9,Q53QQ6,Q53RZ4,Q59FI3,Q9Y4K6

> <UniProt (SwissProt) Alternative ID(s) of Target Chain>


> <UniProt (TrEMBL) Submitted Name of Target Chain>


> <UniProt (TrEMBL) Entry Name of Target Chain>


> <UniProt (TrEMBL) Primary ID of Target Chain>


> <UniProt (TrEMBL) Secondary ID(s) of Target Chain>


> <UniProt (TrEMBL) Alternative ID(s) of Target Chain>


$$$$
00237001.cdx
  Mrv0541 10181809492D          

 35 38  0  0  0  0            999 V2000
   -3.9296    1.9115    0.0000 C   0  0  0  0  0  0  0  0  0  0  0  0
   -3.9296    1.0865    0.0000 C   0  0  0  0  0  0  0  0  0  0  0  0
   -3.2151    0.6740    0.0000 C   0  0  0  0  0  0  0  0  0  0  0  0
   -2.5006    1.0865    0.0000 C   0  0  0  0  0  0  0  0  0  0  0  0
   -2.5006    1.9115    0.0000 C   0  0  0  0  0  0  0  0  0  0  0  0
   -3.2151    2.3240    0.0000 C   0  0  0  0  0  0  0  0  0  0  0  0
   -1.7862    0.6740    0.0000 N   0  0  0  0  0  0  0  0  0  0  0  0
   -1.0717    1.0865    0.0000 C   0  0  0  0  0  0  0  0  0  0  0  0
   -1.0717    1.9115    0.0000 C   0  0  0  0  0  0  0  0  0  0  0  0
   -1.7862    2.3240    0.0000 S   0  0  0  0  0  0  0  0  0  0  0  0
   -1.7862   -0.1510    0.0000 C   0  0  0  0  0  0  0  0  0  0  0  0
   -0.3572    2.3240    0.0000 C   0  0  0  0  0  0  0  0  0  0  0  0
   -1.3737    3.0385    0.0000 O   0  0  0  0  0  0  0  0  0  0  0  0
   -2.3695    2.9074    0.0000 O   0  0  0  0  0  0  0  0  0  0  0  0
   -2.5006   -0.5635    0.0000 C   0  0  0  0  0  0  0  0  0  0  0  0
   -2.5006   -1.3885    0.0000 C   0  0  0  0  0  0  0  0  0  0  0  0
   -1.7862   -1.8010    0.0000 N   0  0  0  0  0  0  0  0  0  0  0  0
   -1.0717   -1.3885    0.0000 C   0  0  0  0  0  0  0  0  0  0  0  0
   -1.0717   -0.5635    0.0000 N   0  0  0  0  0  0  0  0  0  0  0  0
   -3.2151   -0.1510    0.0000 Cl  0  0  0  0  0  0  0  0  0  0  0  0
   -0.3572   -1.8010    0.0000 N   0  0  0  0  0  0  0  0  0  0  0  0
    0.3572   -1.3885    0.0000 C   0  0  0  0  0  0  0  0  0  0  0  0
    1.0717   -1.8010    0.0000 C   0  0  0  0  0  0  0  0  0  0  0  0
    1.7862   -1.3885    0.0000 C   0  0  0  0  0  0  0  0  0  0  0  0
    1.7862   -0.5635    0.0000 C   0  0  0  0  0  0  0  0  0  0  0  0
    1.0717   -0.1510    0.0000 C   0  0  0  0  0  0  0  0  0  0  0  0
    0.3572   -0.5635    0.0000 C   0  0  0  0  0  0  0  0  0  0  0  0
    1.0717   -2.6260    0.0000 O   0  0  0  0  0  0  0  0  0  0  0  0
    1.7862   -3.0385    0.0000 C   0  0  0  0  0  0  0  0  0  0  0  0
    2.5006   -0.1510    0.0000 C   0  0  0  0  0  0  0  0  0  0  0  0
    2.5006    0.6740    0.0000 N   0  0  0  0  0  0  0  0  0  0  0  0
    1.7862    1.0865    0.0000 C   0  0  0  0  0  0  0  0  0  0  0  0
    1.0717    0.6740    0.0000 C   0  0  0  0  0  0  0  0  0  0  0  0
    3.2151   -0.5635    0.0000 C   0  0  0  0  0  0  0  0  0  0  0  0
    3.9296   -0.1510    0.0000 C   0  0  0  0  0  0  0  0  0  0  0  0
  1  2  4  0  0  0  0
  2  3  4  0  0  0  0
  3  4  4  0  0  0  0
  4  5  4  0  0  0  0
  5  6  4  0  0  0  0
  6  1  4  0  0  0  0
  4  7  1  0  0  0  0
  8  9  1  0  0  0  0
  9 10  1  0  0  0  0
 10  5  1  0  0  0  0
  7 11  1  0  0  0  0
  9 12  1  0  0  0  0
 10 13  2  0  0  0  0
 10 14  2  0  0  0  0
 11 15  4  0  0  0  0
 15 16  4  0  0  0  0
 16 17  4  0  0  0  0
 17 18  4  0  0  0  0
 18 19  4  0  0  0  0
 19 11  4  0  0  0  0
 15 20  1  0  0  0  0
 18 21  1  0  0  0  0
 21 22  1  0  0  0  0
 22 23  4  0  0  0  0
 23 24  4  0  0  0  0
 24 25  4  0  0  0  0
 25 26  4  0  0  0  0
 26 27  4  0  0  0  0
 27 22  4  0  0  0  0
 23 28  1  0  0  0  0
 28 29  1  0  0  0  0
 25 30  1  0  0  0  0
 30 31  1  0  0  0  0
 31 32  1  0  0  0  0
 32 33  1  0  0  0  0
 33 26  1  0  0  0  0
 30 34  1  0  0  0  0
 34 35  1  0  0  0  0
M  END
> <From>
www.bindingDB.org

> <BindingDB Reactant_set_id>
490412

> <Ligand InChI>
InChI=1S/C25H30ClN5O3S/c1-5-19-17-13-22(34-4)21(12-16(17)10-11-27-19)30-25-28-14-18(26)24(31-25)29-20-8-6-7-9-23(20)35(32,33)15(2)3/h6-9,12-15,19,27H,5,10-11H2,1-4H3,(H2,28,29,30,31)

> <Ligand InChI Key>
KRUXWJYHRHHEMW-UHFFFAOYSA-N

> <BindingDB MonomerID>
243395

> <BindingDB Ligand Name>
5-chloro-N4-2-(isopropylsulfonyl)phenyl)-N2-(7-methoxy-1-ethyl-1,2,3,4-tetrahydroisoquinolin-6-yl)pyrimidine-2,4-diamine::US10053458, 27

> <Target Name Assigned by Curator or DataSource>
ALK tyrosine kinase receptor

> <Target Source Organism According to Curator or DataSource>
Homo sapiens

> <Ki (nM)>


> <IC50 (nM)>
 0.300

> <Kd (nM)>


> <EC50 (nM)>


> <kon (M-1-s-1)>


> <koff (s-1)>


> <pH>


> <Temp C>
25.00

> <Curation/DataSource>
US Patent

> <Article DOI>


> <PMID>


> <PubChem AID>


> <Patent Number>
US10053458

> <Authors>
Yun, CS; Kim, HR; Cho, SY; Jung, HJ; Lee, K; Chae, CH; Lee, CO; Park, CH; Kim, P; Hwang, JY; Ha, JD; Ahn, SJ

> <Institution>
KOREA RESEARCH INSTITUTE OF CHEMICAL TECHNOLOGY

> <Link to Ligand in BindingDB>
http://www.bindingdb.org/bind/chemsearch/marvin/MolStructure.jsp?monomerid=243395

> <Link to Ligand-Target Pair in BindingDB>
http://www.bindingdb.org/jsp/dbsearch/PrimarySearch_ki.jsp?energyterm=kJ/mole&tag=pol&polymerid=5809&target=ALK+tyrosine+kinase+receptor&column=ki&startPg=0&Increment=50&submit=Search

> <Link to Ligand-Target Pair in BindingDB>
http://www.bindingdb.org/jsp/dbsearch/PrimarySearch_ki.jsp?energyterm=kJ/mole&tag=r21&monomerid=243395&enzyme=ALK+tyrosine+kinase+receptor&column=ki&startPg=0&Increment=50&submit=Search

> <Ligand HET ID in PDB>


> <PDB ID(s) for Ligand-Target Complex>


> <PubChem CID>
129048552

> <PubChem SID>
376221778

> <ChEBI ID of Ligand>


> <ChEMBL ID of Ligand>


> <DrugBank ID of Ligand>


> <IUPHAR_GRAC ID of Ligand>


> <KEGG ID of Ligand>


> <ZINC ID of Ligand>


> <Number of Protein Chains in Target (>1 implies a multichain complex)>
1

> <BindingDB Target Chain Sequence>
MGAIGLLWLLPLLLSTAAVGSGMGTGQRAGSPAAGPPLQPREPLSYSRLQRKSLAVDFVVPSLFRVYARDLLLPPSSSELKAGRPEARGSLALDCAPLLRLLGPAPGVSWTAGSPAPAEARTLSRVLKGGSVRKLRRAKQLVLELGEEAILEGCVGPPGEAAVGLLQFNLSELFSWWIRQGEGRLRIRLMPEKKASEVGREGRLSAAIRASQPRLLFQIFGTGHSSLESPTNMPSPSPDYFTWNLTWIMKDSFPFLSHRSRYGLECSFDFPCELEYSPPLHDLRNQSWSWRRIPSEEASQMDLLDGPGAERSKEMPRGSFLLLNTSADSKHTILSPWMRSSSEHCTLAVSVHRHLQPSGRYIAQLLPHNEAAREILLMPTPGKHGWTVLQGRIGRPDNPFRVALEYISSGNRSLSAVDFFALKNCSEGTSPGSKMALQSSFTCWNGTVLQLGQACDFHQDCAQGEDESQMCRKLPVGFYCNFEDGFCGWTQGTLSPHTPQWQVRTLKDARFQDHQDHALLLSTTDVPASESATVTSATFPAPIKSSPCELRMSWLIRGVLRGNVSLVLVENKTGKEQGRMVWHVAAYEGLSLWQWMVLPLLDVSDRFWLQMVAWWGQGSRAIVAFDNISISLDCYLTISGEDKILQNTAPKSRNLFERNPNKELKPGENSPRQTPIFDPTVHWLFTTCGASGPHGPTQAQCNNAYQNSNLSVEVGSEGPLKGIQIWKVPATDTYSISGYGAAGGKGGKNTMMRSHGVSVLGIFNLEKDDMLYILVGQQGEDACPSTNQLIQKVCIGENNVIEEEIRVNRSVHEWAGGGGGGGGATYVFKMKDGVPVPLIIAAGGGGRAYGAKTDTFHPERLENNSSVLGLNGNSGAAGGGGGWNDNTSLLWAGKSLQEGATGGHSCPQAMKKWGWETRGGFGGGGGGCSSGGGGGGYIGGNAASNNDPEMDGEDGVSFISPLGILYTPALKVMEGHGEVNIKHYLNCSHCEVDECHMDPESHKVICFCDHGTVLAEDGVSCIVSPTPEPHLPLSLILSVVTSALVAALVLAFSGIMIVYRRKHQELQAMQMELQSPEYKLSKLRTSTIMTDYNPNYCFAGKTSSISDLKEVPRKNITLIRGLGHGAFGEVYEGQVSGMPNDPSPLQVAVKTLPEVCSEQDELDFLMEALIISKFNHQNIVRCIGVSLQSLPRFILLELMAGGDLKSFLRETRPRPSQPSSLAMLDLLHVARDIACGCQYLEENHFIHRDIAARNCLLTCPGPGRVAKIGDFGMARDIYRASYYRKGGCAMLPVKWMPPEAFMEGIFTSKTDTWSFGVLLWEIFSLGYMPYPSKSNQEVLEFVTSGGRMDPPKNCPGPVYRIMTQCWQHQPEDRPNFAIILERIEYCTQDPDVINTALPIEYGPLVEEEEKVPVRPKDPEGVPPLLVSQQAKREEERSPAAPPPLPTTSSGKAAKKPTAAEISVRVPRGPAVEGGHVNMAFSQSNPPSELHKVHGSRNKPTSLWNPTYGSWFTEKPTKKNNPIAKKEPHDRGNLGLEGSCTVPPNVATGRLPGASLLLEPSSLTANMKEVPLFRLRHFPCGNVNYGYQQQGLPLEAATAPGAGHYEDTILKSKNSMNQPGP

> <PDB ID(s) of Target Chain>
2XB7,2XBA,3AOX,5FTO,5FTQ,6E0R,6EBW,6EDL,6MX8

> <UniProt (SwissProt) Recommended Name of Target Chain>
ALK tyrosine kinase receptor

> <UniProt (SwissProt) Entry Name of Target Chain>
ALK_HUMAN

> <UniProt (SwissProt) Primary ID of Target Chain>
Q9UM73

> <UniProt (SwissProt) Secondary ID(s) of Target Chain>
Q4ZFX9,Q53QQ6,Q53RZ4,Q59FI3,Q9Y4K6

> <UniProt (SwissProt) Alternative ID(s) of Target Chain>


> <UniProt (TrEMBL) Submitted Name of Target Chain>


> <UniProt (TrEMBL) Entry Name of Target Chain>


> <UniProt (TrEMBL) Primary ID of Target Chain>


> <UniProt (TrEMBL) Secondary ID(s) of Target Chain>


> <UniProt (TrEMBL) Alternative ID(s) of Target Chain>


$$$$
00238001.cdx
  Mrv0541 10181809492D          

 36 39  0  0  0  0            999 V2000
   -3.9296    1.9115    0.0000 C   0  0  0  0  0  0  0  0  0  0  0  0
   -3.9296    1.0865    0.0000 C   0  0  0  0  0  0  0  0  0  0  0  0
   -3.2151    0.6740    0.0000 C   0  0  0  0  0  0  0  0  0  0  0  0
   -2.5006    1.0865    0.0000 C   0  0  0  0  0  0  0  0  0  0  0  0
   -2.5006    1.9115    0.0000 C   0  0  0  0  0  0  0  0  0  0  0  0
   -3.2151    2.3240    0.0000 C   0  0  0  0  0  0  0  0  0  0  0  0
   -1.7862    0.6740    0.0000 N   0  0  0  0  0  0  0  0  0  0  0  0
   -1.0717    1.0865    0.0000 C   0  0  0  0  0  0  0  0  0  0  0  0
   -1.0717    1.9115    0.0000 C   0  0  0  0  0  0  0  0  0  0  0  0
   -1.7862    2.3240    0.0000 S   0  0  0  0  0  0  0  0  0  0  0  0
   -1.7862   -0.1510    0.0000 C   0  0  0  0  0  0  0  0  0  0  0  0
   -0.3572    2.3240    0.0000 C   0  0  0  0  0  0  0  0  0  0  0  0
   -1.3737    3.0385    0.0000 O   0  0  0  0  0  0  0  0  0  0  0  0
   -2.3695    2.9074    0.0000 O   0  0  0  0  0  0  0  0  0  0  0  0
   -2.5006   -0.5635    0.0000 C   0  0  0  0  0  0  0  0  0  0  0  0
   -2.5006   -1.3885    0.0000 C   0  0  0  0  0  0  0  0  0  0  0  0
   -1.7862   -1.8010    0.0000 N   0  0  0  0  0  0  0  0  0  0  0  0
   -1.0717   -1.3885    0.0000 C   0  0  0  0  0  0  0  0  0  0  0  0
   -1.0717   -0.5635    0.0000 N   0  0  0  0  0  0  0  0  0  0  0  0
   -3.2151   -0.1510    0.0000 Cl  0  0  0  0  0  0  0  0  0  0  0  0
   -0.3572   -1.8010    0.0000 N   0  0  0  0  0  0  0  0  0  0  0  0
    0.3572   -1.3885    0.0000 C   0  0  0  0  0  0  0  0  0  0  0  0
    1.0717   -1.8010    0.0000 C   0  0  0  0  0  0  0  0  0  0  0  0
    1.7862   -1.3885    0.0000 C   0  0  0  0  0  0  0  0  0  0  0  0
    1.7862   -0.5635    0.0000 C   0  0  0  0  0  0  0  0  0  0  0  0
    1.0717   -0.1510    0.0000 C   0  0  0  0  0  0  0  0  0  0  0  0
    0.3572   -0.5635    0.0000 C   0  0  0  0  0  0  0  0  0  0  0  0
    1.0717   -2.6260    0.0000 O   0  0  0  0  0  0  0  0  0  0  0  0
    1.7862   -3.0385    0.0000 C   0  0  0  0  0  0  0  0  0  0  0  0
    2.5006   -0.1510    0.0000 C   0  0  0  0  0  0  0  0  0  0  0  0
    2.5006    0.6740    0.0000 N   0  0  0  0  0  0  0  0  0  0  0  0
    1.7862    1.0865    0.0000 C   0  0  0  0  0  0  0  0  0  0  0  0
    1.0717    0.6740    0.0000 C   0  0  0  0  0  0  0  0  0  0  0  0
    3.2151   -0.5635    0.0000 C   0  0  0  0  0  0  0  0  0  0  0  0
    3.9296   -0.1510    0.0000 C   0  0  0  0  0  0  0  0  0  0  0  0
    3.2151   -1.3885    0.0000 C   0  0  0  0  0  0  0  0  0  0  0  0
  1  2  4  0  0  0  0
  2  3  4  0  0  0  0
  3  4  4  0  0  0  0
  4  5  4  0  0  0  0
  5  6  4  0  0  0  0
  6  1  4  0  0  0  0
  4  7  1  0  0  0  0
  8  9  1  0  0  0  0
  9 10  1  0  0  0  0
 10  5  1  0  0  0  0
  7 11  1  0  0  0  0
  9 12  1  0  0  0  0
 10 13  2  0  0  0  0
 10 14  2  0  0  0  0
 11 15  4  0  0  0  0
 15 16  4  0  0  0  0
 16 17  4  0  0  0  0
 17 18  4  0  0  0  0
 18 19  4  0  0  0  0
 19 11  4  0  0  0  0
 15 20  1  0  0  0  0
 18 21  1  0  0  0  0
 21 22  1  0  0  0  0
 22 23  4  0  0  0  0
 23 24  4  0  0  0  0
 24 25  4  0  0  0  0
 25 26  4  0  0  0  0
 26 27  4  0  0  0  0
 27 22  4  0  0  0  0
 23 28  1  0  0  0  0
 28 29  1  0  0  0  0
 25 30  1  0  0  0  0
 30 31  1  0  0  0  0
 31 32  1  0  0  0  0
 32 33  1  0  0  0  0
 33 26  1  0  0  0  0
 30 34  1  0  0  0  0
 34 35  1  0  0  0  0
 34 36  1  0  0  0  0
M  END
> <From>
www.bindingDB.org

> <BindingDB Reactant_set_id>
490414

> <Ligand InChI>
InChI=1S/C26H32ClN5O3S/c1-15(2)24-18-13-22(35-5)21(12-17(18)10-11-28-24)31-26-29-14-19(27)25(32-26)30-20-8-6-7-9-23(20)36(33,34)16(3)4/h6-9,12-16,24,28H,10-11H2,1-5H3,(H2,29,30,31,32)

> <Ligand InChI Key>
ZJAUCUAXUZZZGG-UHFFFAOYSA-N

> <BindingDB MonomerID>
243396

> <BindingDB Ligand Name>
5-chloro-N4-2-(isopropylsulfonyl)phenyl)-N2-(7-methoxy-1-isopropyl-1,2,3,4-tetrahydroisoquinolin-6-yl)pyrimidine-2,4-diamine::US10053458, 28

> <Target Name Assigned by Curator or DataSource>
ALK tyrosine kinase receptor

> <Target Source Organism According to Curator or DataSource>
Homo sapiens

> <Ki (nM)>


> <IC50 (nM)>
<10.00

> <Kd (nM)>


> <EC50 (nM)>


> <kon (M-1-s-1)>


> <koff (s-1)>


> <pH>


> <Temp C>
25.00

> <Curation/DataSource>
US Patent

> <Article DOI>


> <PMID>


> <PubChem AID>


> <Patent Number>
US10053458

> <Authors>
Yun, CS; Kim, HR; Cho, SY; Jung, HJ; Lee, K; Chae, CH; Lee, CO; Park, CH; Kim, P; Hwang, JY; Ha, JD; Ahn, SJ

> <Institution>
KOREA RESEARCH INSTITUTE OF CHEMICAL TECHNOLOGY

> <Link to Ligand in BindingDB>
http://www.bindingdb.org/bind/chemsearch/marvin/MolStructure.jsp?monomerid=243396

> <Link to Ligand-Target Pair in BindingDB>
http://www.bindingdb.org/jsp/dbsearch/PrimarySearch_ki.jsp?energyterm=kJ/mole&tag=pol&polymerid=5809&target=ALK+tyrosine+kinase+receptor&column=ki&startPg=0&Increment=50&submit=Search

> <Link to Ligand-Target Pair in BindingDB>
http://www.bindingdb.org/jsp/dbsearch/PrimarySearch_ki.jsp?energyterm=kJ/mole&tag=r21&monomerid=243396&enzyme=ALK+tyrosine+kinase+receptor&column=ki&startPg=0&Increment=50&submit=Search

> <Ligand HET ID in PDB>


> <PDB ID(s) for Ligand-Target Complex>


> <PubChem CID>
129048550

> <PubChem SID>
376221779

> <ChEBI ID of Ligand>


> <ChEMBL ID of Ligand>


> <DrugBank ID of Ligand>


> <IUPHAR_GRAC ID of Ligand>


> <KEGG ID of Ligand>


> <ZINC ID of Ligand>


> <Number of Protein Chains in Target (>1 implies a multichain complex)>
1

> <BindingDB Target Chain Sequence>
MGAIGLLWLLPLLLSTAAVGSGMGTGQRAGSPAAGPPLQPREPLSYSRLQRKSLAVDFVVPSLFRVYARDLLLPPSSSELKAGRPEARGSLALDCAPLLRLLGPAPGVSWTAGSPAPAEARTLSRVLKGGSVRKLRRAKQLVLELGEEAILEGCVGPPGEAAVGLLQFNLSELFSWWIRQGEGRLRIRLMPEKKASEVGREGRLSAAIRASQPRLLFQIFGTGHSSLESPTNMPSPSPDYFTWNLTWIMKDSFPFLSHRSRYGLECSFDFPCELEYSPPLHDLRNQSWSWRRIPSEEASQMDLLDGPGAERSKEMPRGSFLLLNTSADSKHTILSPWMRSSSEHCTLAVSVHRHLQPSGRYIAQLLPHNEAAREILLMPTPGKHGWTVLQGRIGRPDNPFRVALEYISSGNRSLSAVDFFALKNCSEGTSPGSKMALQSSFTCWNGTVLQLGQACDFHQDCAQGEDESQMCRKLPVGFYCNFEDGFCGWTQGTLSPHTPQWQVRTLKDARFQDHQDHALLLSTTDVPASESATVTSATFPAPIKSSPCELRMSWLIRGVLRGNVSLVLVENKTGKEQGRMVWHVAAYEGLSLWQWMVLPLLDVSDRFWLQMVAWWGQGSRAIVAFDNISISLDCYLTISGEDKILQNTAPKSRNLFERNPNKELKPGENSPRQTPIFDPTVHWLFTTCGASGPHGPTQAQCNNAYQNSNLSVEVGSEGPLKGIQIWKVPATDTYSISGYGAAGGKGGKNTMMRSHGVSVLGIFNLEKDDMLYILVGQQGEDACPSTNQLIQKVCIGENNVIEEEIRVNRSVHEWAGGGGGGGGATYVFKMKDGVPVPLIIAAGGGGRAYGAKTDTFHPERLENNSSVLGLNGNSGAAGGGGGWNDNTSLLWAGKSLQEGATGGHSCPQAMKKWGWETRGGFGGGGGGCSSGGGGGGYIGGNAASNNDPEMDGEDGVSFISPLGILYTPALKVMEGHGEVNIKHYLNCSHCEVDECHMDPESHKVICFCDHGTVLAEDGVSCIVSPTPEPHLPLSLILSVVTSALVAALVLAFSGIMIVYRRKHQELQAMQMELQSPEYKLSKLRTSTIMTDYNPNYCFAGKTSSISDLKEVPRKNITLIRGLGHGAFGEVYEGQVSGMPNDPSPLQVAVKTLPEVCSEQDELDFLMEALIISKFNHQNIVRCIGVSLQSLPRFILLELMAGGDLKSFLRETRPRPSQPSSLAMLDLLHVARDIACGCQYLEENHFIHRDIAARNCLLTCPGPGRVAKIGDFGMARDIYRASYYRKGGCAMLPVKWMPPEAFMEGIFTSKTDTWSFGVLLWEIFSLGYMPYPSKSNQEVLEFVTSGGRMDPPKNCPGPVYRIMTQCWQHQPEDRPNFAIILERIEYCTQDPDVINTALPIEYGPLVEEEEKVPVRPKDPEGVPPLLVSQQAKREEERSPAAPPPLPTTSSGKAAKKPTAAEISVRVPRGPAVEGGHVNMAFSQSNPPSELHKVHGSRNKPTSLWNPTYGSWFTEKPTKKNNPIAKKEPHDRGNLGLEGSCTVPPNVATGRLPGASLLLEPSSLTANMKEVPLFRLRHFPCGNVNYGYQQQGLPLEAATAPGAGHYEDTILKSKNSMNQPGP

> <PDB ID(s) of Target Chain>
2XB7,2XBA,3AOX,5FTO,5FTQ,6E0R,6EBW,6EDL,6MX8

> <UniProt (SwissProt) Recommended Name of Target Chain>
ALK tyrosine kinase receptor

> <UniProt (SwissProt) Entry Name of Target Chain>
ALK_HUMAN

> <UniProt (SwissProt) Primary ID of Target Chain>
Q9UM73

> <UniProt (SwissProt) Secondary ID(s) of Target Chain>
Q4ZFX9,Q53QQ6,Q53RZ4,Q59FI3,Q9Y4K6

> <UniProt (SwissProt) Alternative ID(s) of Target Chain>


> <UniProt (TrEMBL) Submitted Name of Target Chain>


> <UniProt (TrEMBL) Entry Name of Target Chain>


> <UniProt (TrEMBL) Primary ID of Target Chain>


> <UniProt (TrEMBL) Secondary ID(s) of Target Chain>


> <UniProt (TrEMBL) Alternative ID(s) of Target Chain>


$$$$
00243001.cdx
  Mrv0541 10181809492D          

 42 46  0  0  0  0            999 V2000
    0.7282   -4.2430    0.0000 C   0  0  0  0  0  0  0  0  0  0  0  0
    0.1376   -3.6670    0.0000 C   0  0  0  0  0  0  0  0  0  0  0  0
    0.3411   -2.8675    0.0000 C   0  0  0  0  0  0  0  0  0  0  0  0
    1.1352   -2.6440    0.0000 C   0  0  0  0  0  0  0  0  0  0  0  0
    1.7259   -3.2200    0.0000 C   0  0  0  0  0  0  0  0  0  0  0  0
    1.5223   -4.0195    0.0000 C   0  0  0  0  0  0  0  0  0  0  0  0
    1.3388   -1.8445    0.0000 N   0  0  0  0  0  0  0  0  0  0  0  0
    3.9048   -3.3490    0.0000 C   0  0  0  0  0  0  0  0  0  0  0  0
    3.3142   -2.7730    0.0000 C   0  0  0  0  0  0  0  0  0  0  0  0
    2.5200   -2.9965    0.0000 S   0  0  0  0  0  0  0  0  0  0  0  0
    0.7481   -1.2685    0.0000 C   0  0  0  0  0  0  0  0  0  0  0  0
    3.5177   -1.9735    0.0000 C   0  0  0  0  0  0  0  0  0  0  0  0
    2.2965   -2.2023    0.0000 O   0  0  0  0  0  0  0  0  0  0  0  0
    2.7435   -3.7907    0.0000 O   0  0  0  0  0  0  0  0  0  0  0  0
   -0.0460   -1.4920    0.0000 C   0  0  0  0  0  0  0  0  0  0  0  0
   -0.6366   -0.9159    0.0000 C   0  0  0  0  0  0  0  0  0  0  0  0
   -0.4331   -0.1164    0.0000 N   0  0  0  0  0  0  0  0  0  0  0  0
    0.3611    0.1070    0.0000 C   0  0  0  0  0  0  0  0  0  0  0  0
    0.9517   -0.4690    0.0000 N   0  0  0  0  0  0  0  0  0  0  0  0
   -0.2495   -2.2915    0.0000 Cl  0  0  0  0  0  0  0  0  0  0  0  0
    0.5646    0.9065    0.0000 N   0  0  0  0  0  0  0  0  0  0  0  0
   -0.0260    1.4826    0.0000 C   0  0  0  0  0  0  0  0  0  0  0  0
    0.1775    2.2821    0.0000 C   0  0  0  0  0  0  0  0  0  0  0  0
   -0.4131    2.8581    0.0000 C   0  0  0  0  0  0  0  0  0  0  0  0
   -1.2073    2.6346    0.0000 C   0  0  0  0  0  0  0  0  0  0  0  0
   -1.4108    1.8351    0.0000 C   0  0  0  0  0  0  0  0  0  0  0  0
   -0.8202    1.2591    0.0000 C   0  0  0  0  0  0  0  0  0  0  0  0
    0.9716    2.5055    0.0000 O   0  0  0  0  0  0  0  0  0  0  0  0
    1.5623    1.9295    0.0000 C   0  0  0  0  0  0  0  0  0  0  0  0
   -1.7979    3.2106    0.0000 C   0  0  0  0  0  0  0  0  0  0  0  0
   -2.5921    2.9871    0.0000 N   0  0  0  0  0  0  0  0  0  0  0  0
   -2.7956    2.1876    0.0000 C   0  0  0  0  0  0  0  0  0  0  0  0
   -2.2050    1.6116    0.0000 C   0  0  0  0  0  0  0  0  0  0  0  0
   -3.1827    3.5631    0.0000 C   0  0  0  0  0  0  0  0  0  0  0  0
   -3.9768    3.3396    0.0000 O   0  0  0  0  0  0  0  0  0  0  0  0
   -1.5944    4.0101    0.0000 C   0  0  0  0  0  0  0  0  0  0  0  0
   -3.3716    1.5970    0.0000 C   0  0  0  0  0  0  0  0  0  0  0  0
   -3.5951    2.3911    0.0000 C   0  0  0  0  0  0  0  0  0  0  0  0
   -2.9792    4.3626    0.0000 C   0  0  0  0  0  0  0  0  0  0  0  0
   -2.7756    5.1621    0.0000 F   0  0  0  0  0  0  0  0  0  0  0  0
   -2.1797    4.1591    0.0000 F   0  0  0  0  0  0  0  0  0  0  0  0
   -3.7787    4.5661    0.0000 F   0  0  0  0  0  0  0  0  0  0  0  0
  1  2  4  0  0  0  0
  2  3  4  0  0  0  0
  3  4  4  0  0  0  0
  4  5  4  0  0  0  0
  5  6  4  0  0  0  0
  6  1  4  0  0  0  0
  4  7  1  0  0  0  0
  8  9  1  0  0  0  0
  9 10  1  0  0  0  0
 10  5  1  0  0  0  0
  7 11  1  0  0  0  0
  9 12  1  0  0  0  0
 10 13  2  0  0  0  0
 10 14  2  0  0  0  0
 11 15  4  0  0  0  0
 15 16  4  0  0  0  0
 16 17  4  0  0  0  0
 17 18  4  0  0  0  0
 18 19  4  0  0  0  0
 19 11  4  0  0  0  0
 15 20  1  0  0  0  0
 18 21  1  0  0  0  0
 21 22  1  0  0  0  0
 22 23  4  0  0  0  0
 23 24  4  0  0  0  0
 24 25  4  0  0  0  0
 25 26  4  0  0  0  0
 26 27  4  0  0  0  0
 27 22  4  0  0  0  0
 23 28  1  0  0  0  0
 28 29  1  0  0  0  0
 25 30  1  0  0  0  0
 30 31  1  0  0  0  0
 31 32  1  0  0  0  0
 32 33  1  0  0  0  0
 33 26  1  0  0  0  0
 31 34  1  0  0  0  0
 34 35  2  0  0  0  0
 30 36  1  0  0  0  0
 32 37  1  0  0  0  0
 37 38  1  0  0  0  0
 38 32  1  0  0  0  0
 34 39  1  0  0  0  0
 39 40  1  0  0  0  0
 39 41  1  0  0  0  0
 39 42  1  0  0  0  0
M  END
> <From>
www.bindingDB.org

> <BindingDB Reactant_set_id>
490416

> <Ligand InChI>
InChI=1S/C28H29ClF3N5O4S/c1-15(2)42(39,40)23-8-6-5-7-20(23)34-24-19(29)14-33-26(36-24)35-21-11-17-13-27(9-10-27)37(25(38)28(30,31)32)16(3)18(17)12-22(21)41-4/h5-8,11-12,14-16H,9-10,13H2,1-4H3,(H2,33,34,35,36)

> <Ligand InChI Key>
GJIZTEYYHQDCCB-UHFFFAOYSA-N

> <BindingDB MonomerID>
243397

> <BindingDB Ligand Name>
1-(6-((5-chloro-4-((2-(isopropylsulfonyl)phenylamino)pyrimidin-2-yl)amino)-7-methoxy-1-methyl-1,4-dihydro-2H-spiro[cyclopropane-1,3-isoquinoline]-2-yl)-2,2,2-trifluoroethane-1-one::US10053458, 29

> <Target Name Assigned by Curator or DataSource>
ALK tyrosine kinase receptor

> <Target Source Organism According to Curator or DataSource>
Homo sapiens

> <Ki (nM)>


> <IC50 (nM)>
<10.00

> <Kd (nM)>


> <EC50 (nM)>


> <kon (M-1-s-1)>


> <koff (s-1)>


> <pH>


> <Temp C>
25.00

> <Curation/DataSource>
US Patent

> <Article DOI>


> <PMID>


> <PubChem AID>


> <Patent Number>
US10053458

> <Authors>
Yun, CS; Kim, HR; Cho, SY; Jung, HJ; Lee, K; Chae, CH; Lee, CO; Park, CH; Kim, P; Hwang, JY; Ha, JD; Ahn, SJ

> <Institution>
KOREA RESEARCH INSTITUTE OF CHEMICAL TECHNOLOGY

> <Link to Ligand in BindingDB>
http://www.bindingdb.org/bind/chemsearch/marvin/MolStructure.jsp?monomerid=243397

> <Link to Ligand-Target Pair in BindingDB>
http://www.bindingdb.org/jsp/dbsearch/PrimarySearch_ki.jsp?energyterm=kJ/mole&tag=pol&polymerid=5809&target=ALK+tyrosine+kinase+receptor&column=ki&startPg=0&Increment=50&submit=Search

> <Link to Ligand-Target Pair in BindingDB>
http://www.bindingdb.org/jsp/dbsearch/PrimarySearch_ki.jsp?energyterm=kJ/mole&tag=r21&monomerid=243397&enzyme=ALK+tyrosine+kinase+receptor&column=ki&startPg=0&Increment=50&submit=Search

> <Ligand HET ID in PDB>


> <PDB ID(s) for Ligand-Target Complex>


> <PubChem CID>
129048467

> <PubChem SID>
376221780

> <ChEBI ID of Ligand>


> <ChEMBL ID of Ligand>


> <DrugBank ID of Ligand>


> <IUPHAR_GRAC ID of Ligand>


> <KEGG ID of Ligand>


> <ZINC ID of Ligand>


> <Number of Protein Chains in Target (>1 implies a multichain complex)>
1

> <BindingDB Target Chain Sequence>
MGAIGLLWLLPLLLSTAAVGSGMGTGQRAGSPAAGPPLQPREPLSYSRLQRKSLAVDFVVPSLFRVYARDLLLPPSSSELKAGRPEARGSLALDCAPLLRLLGPAPGVSWTAGSPAPAEARTLSRVLKGGSVRKLRRAKQLVLELGEEAILEGCVGPPGEAAVGLLQFNLSELFSWWIRQGEGRLRIRLMPEKKASEVGREGRLSAAIRASQPRLLFQIFGTGHSSLESPTNMPSPSPDYFTWNLTWIMKDSFPFLSHRSRYGLECSFDFPCELEYSPPLHDLRNQSWSWRRIPSEEASQMDLLDGPGAERSKEMPRGSFLLLNTSADSKHTILSPWMRSSSEHCTLAVSVHRHLQPSGRYIAQLLPHNEAAREILLMPTPGKHGWTVLQGRIGRPDNPFRVALEYISSGNRSLSAVDFFALKNCSEGTSPGSKMALQSSFTCWNGTVLQLGQACDFHQDCAQGEDESQMCRKLPVGFYCNFEDGFCGWTQGTLSPHTPQWQVRTLKDARFQDHQDHALLLSTTDVPASESATVTSATFPAPIKSSPCELRMSWLIRGVLRGNVSLVLVENKTGKEQGRMVWHVAAYEGLSLWQWMVLPLLDVSDRFWLQMVAWWGQGSRAIVAFDNISISLDCYLTISGEDKILQNTAPKSRNLFERNPNKELKPGENSPRQTPIFDPTVHWLFTTCGASGPHGPTQAQCNNAYQNSNLSVEVGSEGPLKGIQIWKVPATDTYSISGYGAAGGKGGKNTMMRSHGVSVLGIFNLEKDDMLYILVGQQGEDACPSTNQLIQKVCIGENNVIEEEIRVNRSVHEWAGGGGGGGGATYVFKMKDGVPVPLIIAAGGGGRAYGAKTDTFHPERLENNSSVLGLNGNSGAAGGGGGWNDNTSLLWAGKSLQEGATGGHSCPQAMKKWGWETRGGFGGGGGGCSSGGGGGGYIGGNAASNNDPEMDGEDGVSFISPLGILYTPALKVMEGHGEVNIKHYLNCSHCEVDECHMDPESHKVICFCDHGTVLAEDGVSCIVSPTPEPHLPLSLILSVVTSALVAALVLAFSGIMIVYRRKHQELQAMQMELQSPEYKLSKLRTSTIMTDYNPNYCFAGKTSSISDLKEVPRKNITLIRGLGHGAFGEVYEGQVSGMPNDPSPLQVAVKTLPEVCSEQDELDFLMEALIISKFNHQNIVRCIGVSLQSLPRFILLELMAGGDLKSFLRETRPRPSQPSSLAMLDLLHVARDIACGCQYLEENHFIHRDIAARNCLLTCPGPGRVAKIGDFGMARDIYRASYYRKGGCAMLPVKWMPPEAFMEGIFTSKTDTWSFGVLLWEIFSLGYMPYPSKSNQEVLEFVTSGGRMDPPKNCPGPVYRIMTQCWQHQPEDRPNFAIILERIEYCTQDPDVINTALPIEYGPLVEEEEKVPVRPKDPEGVPPLLVSQQAKREEERSPAAPPPLPTTSSGKAAKKPTAAEISVRVPRGPAVEGGHVNMAFSQSNPPSELHKVHGSRNKPTSLWNPTYGSWFTEKPTKKNNPIAKKEPHDRGNLGLEGSCTVPPNVATGRLPGASLLLEPSSLTANMKEVPLFRLRHFPCGNVNYGYQQQGLPLEAATAPGAGHYEDTILKSKNSMNQPGP

> <PDB ID(s) of Target Chain>
2XB7,2XBA,3AOX,5FTO,5FTQ,6E0R,6EBW,6EDL,6MX8

> <UniProt (SwissProt) Recommended Name of Target Chain>
ALK tyrosine kinase receptor

> <UniProt (SwissProt) Entry Name of Target Chain>
ALK_HUMAN

> <UniProt (SwissProt) Primary ID of Target Chain>
Q9UM73

> <UniProt (SwissProt) Secondary ID(s) of Target Chain>
Q4ZFX9,Q53QQ6,Q53RZ4,Q59FI3,Q9Y4K6

> <UniProt (SwissProt) Alternative ID(s) of Target Chain>


> <UniProt (TrEMBL) Submitted Name of Target Chain>


> <UniProt (TrEMBL) Entry Name of Target Chain>


> <UniProt (TrEMBL) Primary ID of Target Chain>


> <UniProt (TrEMBL) Secondary ID(s) of Target Chain>


> <UniProt (TrEMBL) Alternative ID(s) of Target Chain>


$$$$
00244001.cdx
  Mrv0541 10181809492D          

 36 40  0  0  0  0            999 V2000
   -3.5724    1.9115    0.0000 C   0  0  0  0  0  0  0  0  0  0  0  0
   -3.5724    1.0865    0.0000 C   0  0  0  0  0  0  0  0  0  0  0  0
   -2.8579    0.6740    0.0000 C   0  0  0  0  0  0  0  0  0  0  0  0
   -2.1434    1.0865    0.0000 C   0  0  0  0  0  0  0  0  0  0  0  0
   -2.1434    1.9115    0.0000 C   0  0  0  0  0  0  0  0  0  0  0  0
   -2.8579    2.3240    0.0000 C   0  0  0  0  0  0  0  0  0  0  0  0
   -1.4289    0.6740    0.0000 N   0  0  0  0  0  0  0  0  0  0  0  0
   -0.7145    1.0865    0.0000 C   0  0  0  0  0  0  0  0  0  0  0  0
   -0.7145    1.9115    0.0000 C   0  0  0  0  0  0  0  0  0  0  0  0
   -1.4289    2.3240    0.0000 S   0  0  0  0  0  0  0  0  0  0  0  0
   -1.4289   -0.1510    0.0000 C   0  0  0  0  0  0  0  0  0  0  0  0
    0.0000    2.3240    0.0000 C   0  0  0  0  0  0  0  0  0  0  0  0
   -1.0164    3.0385    0.0000 O   0  0  0  0  0  0  0  0  0  0  0  0
   -2.0123    2.9074    0.0000 O   0  0  0  0  0  0  0  0  0  0  0  0
   -2.1434   -0.5635    0.0000 C   0  0  0  0  0  0  0  0  0  0  0  0
   -2.1434   -1.3885    0.0000 C   0  0  0  0  0  0  0  0  0  0  0  0
   -1.4289   -1.8010    0.0000 N   0  0  0  0  0  0  0  0  0  0  0  0
   -0.7145   -1.3885    0.0000 C   0  0  0  0  0  0  0  0  0  0  0  0
   -0.7145   -0.5635    0.0000 N   0  0  0  0  0  0  0  0  0  0  0  0
   -2.8579   -0.1510    0.0000 Cl  0  0  0  0  0  0  0  0  0  0  0  0
    0.0000   -1.8010    0.0000 N   0  0  0  0  0  0  0  0  0  0  0  0
    0.7145   -1.3885    0.0000 C   0  0  0  0  0  0  0  0  0  0  0  0
    1.4289   -1.8010    0.0000 C   0  0  0  0  0  0  0  0  0  0  0  0
    2.1434   -1.3885    0.0000 C   0  0  0  0  0  0  0  0  0  0  0  0
    2.1434   -0.5635    0.0000 C   0  0  0  0  0  0  0  0  0  0  0  0
    1.4289   -0.1510    0.0000 C   0  0  0  0  0  0  0  0  0  0  0  0
    0.7145   -0.5635    0.0000 C   0  0  0  0  0  0  0  0  0  0  0  0
    1.4289   -2.6260    0.0000 O   0  0  0  0  0  0  0  0  0  0  0  0
    2.1434   -3.0385    0.0000 C   0  0  0  0  0  0  0  0  0  0  0  0
    2.8579   -0.1510    0.0000 C   0  0  0  0  0  0  0  0  0  0  0  0
    2.8579    0.6740    0.0000 N   0  0  0  0  0  0  0  0  0  0  0  0
    2.1434    1.0865    0.0000 C   0  0  0  0  0  0  0  0  0  0  0  0
    1.4289    0.6740    0.0000 C   0  0  0  0  0  0  0  0  0  0  0  0
    3.5724   -0.5635    0.0000 C   0  0  0  0  0  0  0  0  0  0  0  0
    2.5559    1.8010    0.0000 C   0  0  0  0  0  0  0  0  0  0  0  0
    1.7309    1.8010    0.0000 C   0  0  0  0  0  0  0  0  0  0  0  0
  1  2  4  0  0  0  0
  2  3  4  0  0  0  0
  3  4  4  0  0  0  0
  4  5  4  0  0  0  0
  5  6  4  0  0  0  0
  6  1  4  0  0  0  0
  4  7  1  0  0  0  0
  8  9  1  0  0  0  0
  9 10  1  0  0  0  0
 10  5  1  0  0  0  0
  7 11  1  0  0  0  0
  9 12  1  0  0  0  0
 10 13  2  0  0  0  0
 10 14  2  0  0  0  0
 11 15  4  0  0  0  0
 15 16  4  0  0  0  0
 16 17  4  0  0  0  0
 17 18  4  0  0  0  0
 18 19  4  0  0  0  0
 19 11  4  0  0  0  0
 15 20  1  0  0  0  0
 18 21  1  0  0  0  0
 21 22  1  0  0  0  0
 22 23  4  0  0  0  0
 23 24  4  0  0  0  0
 24 25  4  0  0  0  0
 25 26  4  0  0  0  0
 26 27  4  0  0  0  0
 27 22  4  0  0  0  0
 23 28  1  0  0  0  0
 28 29  1  0  0  0  0
 25 30  1  0  0  0  0
 30 31  1  0  0  0  0
 31 32  1  0  0  0  0
 32 33  1  0  0  0  0
 33 26  1  0  0  0  0
 30 34  1  0  0  0  0
 32 35  1  0  0  0  0
 35 36  1  0  0  0  0
 36 32  1  0  0  0  0
M  END
> <From>
www.bindingDB.org

> <BindingDB Reactant_set_id>
490418

> <Ligand InChI>
InChI=1S/C26H30ClN5O3S/c1-15(2)36(33,34)23-8-6-5-7-20(23)29-24-19(27)14-28-25(31-24)30-21-11-17-13-26(9-10-26)32-16(3)18(17)12-22(21)35-4/h5-8,11-12,14-16,32H,9-10,13H2,1-4H3,(H2,28,29,30,31)

> <Ligand InChI Key>
HULCEUZPMDLWRP-UHFFFAOYSA-N

> <BindingDB MonomerID>
243398

> <BindingDB Ligand Name>
5-chloro-N4-(2-(isopropylsulfonyl)phenyl)-N2-(7-methoxy-1methyl-1,4-dihydro-2H-spiro[cyclopropane-1,3-isoquinoline]-6-yl)pyrimidine-2,4-diamine::US10053458, 30

> <Target Name Assigned by Curator or DataSource>
ALK tyrosine kinase receptor

> <Target Source Organism According to Curator or DataSource>
Homo sapiens

> <Ki (nM)>


> <IC50 (nM)>
<10.00

> <Kd (nM)>


> <EC50 (nM)>


> <kon (M-1-s-1)>


> <koff (s-1)>


> <pH>


> <Temp C>
25.00

> <Curation/DataSource>
US Patent

> <Article DOI>


> <PMID>


> <PubChem AID>


> <Patent Number>
US10053458

> <Authors>
Yun, CS; Kim, HR; Cho, SY; Jung, HJ; Lee, K; Chae, CH; Lee, CO; Park, CH; Kim, P; Hwang, JY; Ha, JD; Ahn, SJ

> <Institution>
KOREA RESEARCH INSTITUTE OF CHEMICAL TECHNOLOGY

> <Link to Ligand in BindingDB>
http://www.bindingdb.org/bind/chemsearch/marvin/MolStructure.jsp?monomerid=243398

> <Link to Ligand-Target Pair in BindingDB>
http://www.bindingdb.org/jsp/dbsearch/PrimarySearch_ki.jsp?energyterm=kJ/mole&tag=pol&polymerid=5809&target=ALK+tyrosine+kinase+receptor&column=ki&startPg=0&Increment=50&submit=Search

> <Link to Ligand-Target Pair in BindingDB>
http://www.bindingdb.org/jsp/dbsearch/PrimarySearch_ki.jsp?energyterm=kJ/mole&tag=r21&monomerid=243398&enzyme=ALK+tyrosine+kinase+receptor&column=ki&startPg=0&Increment=50&submit=Search

> <Ligand HET ID in PDB>


> <PDB ID(s) for Ligand-Target Complex>


> <PubChem CID>
129147985

> <PubChem SID>
376221781

> <ChEBI ID of Ligand>


> <ChEMBL ID of Ligand>


> <DrugBank ID of Ligand>


> <IUPHAR_GRAC ID of Ligand>


> <KEGG ID of Ligand>


> <ZINC ID of Ligand>


> <Number of Protein Chains in Target (>1 implies a multichain complex)>
1

> <BindingDB Target Chain Sequence>
MGAIGLLWLLPLLLSTAAVGSGMGTGQRAGSPAAGPPLQPREPLSYSRLQRKSLAVDFVVPSLFRVYARDLLLPPSSSELKAGRPEARGSLALDCAPLLRLLGPAPGVSWTAGSPAPAEARTLSRVLKGGSVRKLRRAKQLVLELGEEAILEGCVGPPGEAAVGLLQFNLSELFSWWIRQGEGRLRIRLMPEKKASEVGREGRLSAAIRASQPRLLFQIFGTGHSSLESPTNMPSPSPDYFTWNLTWIMKDSFPFLSHRSRYGLECSFDFPCELEYSPPLHDLRNQSWSWRRIPSEEASQMDLLDGPGAERSKEMPRGSFLLLNTSADSKHTILSPWMRSSSEHCTLAVSVHRHLQPSGRYIAQLLPHNEAAREILLMPTPGKHGWTVLQGRIGRPDNPFRVALEYISSGNRSLSAVDFFALKNCSEGTSPGSKMALQSSFTCWNGTVLQLGQACDFHQDCAQGEDESQMCRKLPVGFYCNFEDGFCGWTQGTLSPHTPQWQVRTLKDARFQDHQDHALLLSTTDVPASESATVTSATFPAPIKSSPCELRMSWLIRGVLRGNVSLVLVENKTGKEQGRMVWHVAAYEGLSLWQWMVLPLLDVSDRFWLQMVAWWGQGSRAIVAFDNISISLDCYLTISGEDKILQNTAPKSRNLFERNPNKELKPGENSPRQTPIFDPTVHWLFTTCGASGPHGPTQAQCNNAYQNSNLSVEVGSEGPLKGIQIWKVPATDTYSISGYGAAGGKGGKNTMMRSHGVSVLGIFNLEKDDMLYILVGQQGEDACPSTNQLIQKVCIGENNVIEEEIRVNRSVHEWAGGGGGGGGATYVFKMKDGVPVPLIIAAGGGGRAYGAKTDTFHPERLENNSSVLGLNGNSGAAGGGGGWNDNTSLLWAGKSLQEGATGGHSCPQAMKKWGWETRGGFGGGGGGCSSGGGGGGYIGGNAASNNDPEMDGEDGVSFISPLGILYTPALKVMEGHGEVNIKHYLNCSHCEVDECHMDPESHKVICFCDHGTVLAEDGVSCIVSPTPEPHLPLSLILSVVTSALVAALVLAFSGIMIVYRRKHQELQAMQMELQSPEYKLSKLRTSTIMTDYNPNYCFAGKTSSISDLKEVPRKNITLIRGLGHGAFGEVYEGQVSGMPNDPSPLQVAVKTLPEVCSEQDELDFLMEALIISKFNHQNIVRCIGVSLQSLPRFILLELMAGGDLKSFLRETRPRPSQPSSLAMLDLLHVARDIACGCQYLEENHFIHRDIAARNCLLTCPGPGRVAKIGDFGMARDIYRASYYRKGGCAMLPVKWMPPEAFMEGIFTSKTDTWSFGVLLWEIFSLGYMPYPSKSNQEVLEFVTSGGRMDPPKNCPGPVYRIMTQCWQHQPEDRPNFAIILERIEYCTQDPDVINTALPIEYGPLVEEEEKVPVRPKDPEGVPPLLVSQQAKREEERSPAAPPPLPTTSSGKAAKKPTAAEISVRVPRGPAVEGGHVNMAFSQSNPPSELHKVHGSRNKPTSLWNPTYGSWFTEKPTKKNNPIAKKEPHDRGNLGLEGSCTVPPNVATGRLPGASLLLEPSSLTANMKEVPLFRLRHFPCGNVNYGYQQQGLPLEAATAPGAGHYEDTILKSKNSMNQPGP

> <PDB ID(s) of Target Chain>
2XB7,2XBA,3AOX,5FTO,5FTQ,6E0R,6EBW,6EDL,6MX8

> <UniProt (SwissProt) Recommended Name of Target Chain>
ALK tyrosine kinase receptor

> <UniProt (SwissProt) Entry Name of Target Chain>
ALK_HUMAN

> <UniProt (SwissProt) Primary ID of Target Chain>
Q9UM73

> <UniProt (SwissProt) Secondary ID(s) of Target Chain>
Q4ZFX9,Q53QQ6,Q53RZ4,Q59FI3,Q9Y4K6

> <UniProt (SwissProt) Alternative ID(s) of Target Chain>


> <UniProt (TrEMBL) Submitted Name of Target Chain>


> <UniProt (TrEMBL) Entry Name of Target Chain>


> <UniProt (TrEMBL) Primary ID of Target Chain>


> <UniProt (TrEMBL) Secondary ID(s) of Target Chain>


> <UniProt (TrEMBL) Alternative ID(s) of Target Chain>


$$$$
00245001.cdx
  Mrv0541 10181809492D          

 42 46  0  0  0  0            999 V2000
   -3.9296    1.6500    0.0000 C   0  0  0  0  0  0  0  0  0  0  0  0
   -3.9296    0.8250    0.0000 C   0  0  0  0  0  0  0  0  0  0  0  0
   -3.2151    0.4125    0.0000 C   0  0  0  0  0  0  0  0  0  0  0  0
   -2.5006    0.8250    0.0000 C   0  0  0  0  0  0  0  0  0  0  0  0
   -2.5006    1.6500    0.0000 C   0  0  0  0  0  0  0  0  0  0  0  0
   -3.2151    2.0625    0.0000 C   0  0  0  0  0  0  0  0  0  0  0  0
   -1.7862    0.4125    0.0000 N   0  0  0  0  0  0  0  0  0  0  0  0
   -1.0717    0.8250    0.0000 C   0  0  0  0  0  0  0  0  0  0  0  0
   -1.0717    1.6500    0.0000 C   0  0  0  0  0  0  0  0  0  0  0  0
   -1.7862    2.0625    0.0000 S   0  0  0  0  0  0  0  0  0  0  0  0
   -1.7862   -0.4125    0.0000 C   0  0  0  0  0  0  0  0  0  0  0  0
   -0.3572    2.0625    0.0000 C   0  0  0  0  0  0  0  0  0  0  0  0
   -1.3737    2.7770    0.0000 O   0  0  0  0  0  0  0  0  0  0  0  0
   -2.3695    2.6459    0.0000 O   0  0  0  0  0  0  0  0  0  0  0  0
   -2.5006   -0.8250    0.0000 C   0  0  0  0  0  0  0  0  0  0  0  0
   -2.5006   -1.6500    0.0000 C   0  0  0  0  0  0  0  0  0  0  0  0
   -1.7862   -2.0625    0.0000 N   0  0  0  0  0  0  0  0  0  0  0  0
   -1.0717   -1.6500    0.0000 C   0  0  0  0  0  0  0  0  0  0  0  0
   -1.0717   -0.8250    0.0000 N   0  0  0  0  0  0  0  0  0  0  0  0
   -3.2151   -0.4125    0.0000 Cl  0  0  0  0  0  0  0  0  0  0  0  0
   -0.3572   -2.0625    0.0000 N   0  0  0  0  0  0  0  0  0  0  0  0
    0.3572   -1.6500    0.0000 C   0  0  0  0  0  0  0  0  0  0  0  0
    1.0717   -2.0625    0.0000 C   0  0  0  0  0  0  0  0  0  0  0  0
    1.7862   -1.6500    0.0000 C   0  0  0  0  0  0  0  0  0  0  0  0
    1.7862   -0.8250    0.0000 C   0  0  0  0  0  0  0  0  0  0  0  0
    1.0717   -0.4125    0.0000 C   0  0  0  0  0  0  0  0  0  0  0  0
    0.3572   -0.8250    0.0000 C   0  0  0  0  0  0  0  0  0  0  0  0
    1.0717   -2.8875    0.0000 O   0  0  0  0  0  0  0  0  0  0  0  0
    1.7862   -3.3000    0.0000 C   0  0  0  0  0  0  0  0  0  0  0  0
    2.5006   -0.4125    0.0000 C   0  0  0  0  0  0  0  0  0  0  0  0
    2.5006    0.4125    0.0000 N   0  0  0  0  0  0  0  0  0  0  0  0
    1.7862    0.8250    0.0000 C   0  0  0  0  0  0  0  0  0  0  0  0
    1.0717    0.4125    0.0000 C   0  0  0  0  0  0  0  0  0  0  0  0
    3.2151   -0.8250    0.0000 C   0  0  0  0  0  0  0  0  0  0  0  0
    3.2151    0.0000    0.0000 C   0  0  0  0  0  0  0  0  0  0  0  0
    3.2151    0.8250    0.0000 C   0  0  0  0  0  0  0  0  0  0  0  0
    3.2151    1.6500    0.0000 C   0  0  0  0  0  0  0  0  0  0  0  0
    3.9296    2.0625    0.0000 C   0  0  0  0  0  0  0  0  0  0  0  0
    3.9296    2.8875    0.0000 C   0  0  0  0  0  0  0  0  0  0  0  0
    3.2151    3.3000    0.0000 C   0  0  0  0  0  0  0  0  0  0  0  0
    2.5006    2.8875    0.0000 C   0  0  0  0  0  0  0  0  0  0  0  0
    2.5006    2.0625    0.0000 C   0  0  0  0  0  0  0  0  0  0  0  0
  1  2  4  0  0  0  0
  2  3  4  0  0  0  0
  3  4  4  0  0  0  0
  4  5  4  0  0  0  0
  5  6  4  0  0  0  0
  6  1  4  0  0  0  0
  4  7  1  0  0  0  0
  8  9  1  0  0  0  0
  9 10  1  0  0  0  0
 10  5  1  0  0  0  0
  7 11  1  0  0  0  0
  9 12  1  0  0  0  0
 10 13  2  0  0  0  0
 10 14  2  0  0  0  0
 11 15  4  0  0  0  0
 15 16  4  0  0  0  0
 16 17  4  0  0  0  0
 17 18  4  0  0  0  0
 18 19  4  0  0  0  0
 19 11  4  0  0  0  0
 15 20  1  0  0  0  0
 18 21  1  0  0  0  0
 21 22  1  0  0  0  0
 22 23  4  0  0  0  0
 23 24  4  0  0  0  0
 24 25  4  0  0  0  0
 25 26  4  0  0  0  0
 26 27  4  0  0  0  0
 27 22  4  0  0  0  0
 23 28  1  0  0  0  0
 28 29  1  0  0  0  0
 25 30  1  0  0  0  0
 30 31  1  0  0  0  0
 31 32  1  0  0  0  0
 32 33  1  0  0  0  0
 33 26  1  0  0  0  0
 30 34  1  0  0  0  0
 30 35  1  0  0  0  0
 31 36  1  0  0  0  0
 36 37  1  0  0  0  0
 37 38  4  0  0  0  0
 38 39  4  0  0  0  0
 39 40  4  0  0  0  0
 40 41  4  0  0  0  0
 41 42  4  0  0  0  0
 42 37  4  0  0  0  0
M  END
> <From>
www.bindingDB.org

> <BindingDB Reactant_set_id>
490420

> <Ligand InChI>
InChI=1S/C32H36ClN5O3S/c1-21(2)42(39,40)29-14-10-9-13-26(29)35-30-25(33)19-34-31(37-30)36-27-17-23-15-16-38(20-22-11-7-6-8-12-22)32(3,4)24(23)18-28(27)41-5/h6-14,17-19,21H,15-16,20H2,1-5H3,(H2,34,35,36,37)

> <Ligand InChI Key>
SMGGOEHEOXCFJL-UHFFFAOYSA-N

> <BindingDB MonomerID>
243399

> <BindingDB Ligand Name>
5-chloro-N4-(2-(isopropylsulfonyl)phenyl)-N2-(2-benzyl-7-methoxy-1,1-dimethyl-1,2,3,4-tetrahydroisoquinolin-6-yl)pyrimidine-2,4-diamine::US10053458, 31

> <Target Name Assigned by Curator or DataSource>
ALK tyrosine kinase receptor

> <Target Source Organism According to Curator or DataSource>
Homo sapiens

> <Ki (nM)>


> <IC50 (nM)>
<10.00

> <Kd (nM)>


> <EC50 (nM)>


> <kon (M-1-s-1)>


> <koff (s-1)>


> <pH>


> <Temp C>
25.00

> <Curation/DataSource>
US Patent

> <Article DOI>


> <PMID>


> <PubChem AID>


> <Patent Number>
US10053458

> <Authors>
Yun, CS; Kim, HR; Cho, SY; Jung, HJ; Lee, K; Chae, CH; Lee, CO; Park, CH; Kim, P; Hwang, JY; Ha, JD; Ahn, SJ

> <Institution>
KOREA RESEARCH INSTITUTE OF CHEMICAL TECHNOLOGY

> <Link to Ligand in BindingDB>
http://www.bindingdb.org/bind/chemsearch/marvin/MolStructure.jsp?monomerid=243399

> <Link to Ligand-Target Pair in BindingDB>
http://www.bindingdb.org/jsp/dbsearch/PrimarySearch_ki.jsp?energyterm=kJ/mole&tag=pol&polymerid=5809&target=ALK+tyrosine+kinase+receptor&column=ki&startPg=0&Increment=50&submit=Search

> <Link to Ligand-Target Pair in BindingDB>
http://www.bindingdb.org/jsp/dbsearch/PrimarySearch_ki.jsp?energyterm=kJ/mole&tag=r21&monomerid=243399&enzyme=ALK+tyrosine+kinase+receptor&column=ki&startPg=0&Increment=50&submit=Search

> <Ligand HET ID in PDB>


> <PDB ID(s) for Ligand-Target Complex>


> <PubChem CID>
129048508

> <PubChem SID>
376221782

> <ChEBI ID of Ligand>


> <ChEMBL ID of Ligand>


> <DrugBank ID of Ligand>


> <IUPHAR_GRAC ID of Ligand>


> <KEGG ID of Ligand>


> <ZINC ID of Ligand>


> <Number of Protein Chains in Target (>1 implies a multichain complex)>
1

> <BindingDB Target Chain Sequence>
MGAIGLLWLLPLLLSTAAVGSGMGTGQRAGSPAAGPPLQPREPLSYSRLQRKSLAVDFVVPSLFRVYARDLLLPPSSSELKAGRPEARGSLALDCAPLLRLLGPAPGVSWTAGSPAPAEARTLSRVLKGGSVRKLRRAKQLVLELGEEAILEGCVGPPGEAAVGLLQFNLSELFSWWIRQGEGRLRIRLMPEKKASEVGREGRLSAAIRASQPRLLFQIFGTGHSSLESPTNMPSPSPDYFTWNLTWIMKDSFPFLSHRSRYGLECSFDFPCELEYSPPLHDLRNQSWSWRRIPSEEASQMDLLDGPGAERSKEMPRGSFLLLNTSADSKHTILSPWMRSSSEHCTLAVSVHRHLQPSGRYIAQLLPHNEAAREILLMPTPGKHGWTVLQGRIGRPDNPFRVALEYISSGNRSLSAVDFFALKNCSEGTSPGSKMALQSSFTCWNGTVLQLGQACDFHQDCAQGEDESQMCRKLPVGFYCNFEDGFCGWTQGTLSPHTPQWQVRTLKDARFQDHQDHALLLSTTDVPASESATVTSATFPAPIKSSPCELRMSWLIRGVLRGNVSLVLVENKTGKEQGRMVWHVAAYEGLSLWQWMVLPLLDVSDRFWLQMVAWWGQGSRAIVAFDNISISLDCYLTISGEDKILQNTAPKSRNLFERNPNKELKPGENSPRQTPIFDPTVHWLFTTCGASGPHGPTQAQCNNAYQNSNLSVEVGSEGPLKGIQIWKVPATDTYSISGYGAAGGKGGKNTMMRSHGVSVLGIFNLEKDDMLYILVGQQGEDACPSTNQLIQKVCIGENNVIEEEIRVNRSVHEWAGGGGGGGGATYVFKMKDGVPVPLIIAAGGGGRAYGAKTDTFHPERLENNSSVLGLNGNSGAAGGGGGWNDNTSLLWAGKSLQEGATGGHSCPQAMKKWGWETRGGFGGGGGGCSSGGGGGGYIGGNAASNNDPEMDGEDGVSFISPLGILYTPALKVMEGHGEVNIKHYLNCSHCEVDECHMDPESHKVICFCDHGTVLAEDGVSCIVSPTPEPHLPLSLILSVVTSALVAALVLAFSGIMIVYRRKHQELQAMQMELQSPEYKLSKLRTSTIMTDYNPNYCFAGKTSSISDLKEVPRKNITLIRGLGHGAFGEVYEGQVSGMPNDPSPLQVAVKTLPEVCSEQDELDFLMEALIISKFNHQNIVRCIGVSLQSLPRFILLELMAGGDLKSFLRETRPRPSQPSSLAMLDLLHVARDIACGCQYLEENHFIHRDIAARNCLLTCPGPGRVAKIGDFGMARDIYRASYYRKGGCAMLPVKWMPPEAFMEGIFTSKTDTWSFGVLLWEIFSLGYMPYPSKSNQEVLEFVTSGGRMDPPKNCPGPVYRIMTQCWQHQPEDRPNFAIILERIEYCTQDPDVINTALPIEYGPLVEEEEKVPVRPKDPEGVPPLLVSQQAKREEERSPAAPPPLPTTSSGKAAKKPTAAEISVRVPRGPAVEGGHVNMAFSQSNPPSELHKVHGSRNKPTSLWNPTYGSWFTEKPTKKNNPIAKKEPHDRGNLGLEGSCTVPPNVATGRLPGASLLLEPSSLTANMKEVPLFRLRHFPCGNVNYGYQQQGLPLEAATAPGAGHYEDTILKSKNSMNQPGP

> <PDB ID(s) of Target Chain>
2XB7,2XBA,3AOX,5FTO,5FTQ,6E0R,6EBW,6EDL,6MX8

> <UniProt (SwissProt) Recommended Name of Target Chain>
ALK tyrosine kinase receptor

> <UniProt (SwissProt) Entry Name of Target Chain>
ALK_HUMAN

> <UniProt (SwissProt) Primary ID of Target Chain>
Q9UM73

> <UniProt (SwissProt) Secondary ID(s) of Target Chain>
Q4ZFX9,Q53QQ6,Q53RZ4,Q59FI3,Q9Y4K6

> <UniProt (SwissProt) Alternative ID(s) of Target Chain>


> <UniProt (TrEMBL) Submitted Name of Target Chain>


> <UniProt (TrEMBL) Entry Name of Target Chain>


> <UniProt (TrEMBL) Primary ID of Target Chain>


> <UniProt (TrEMBL) Secondary ID(s) of Target Chain>


> <UniProt (TrEMBL) Alternative ID(s) of Target Chain>


$$$$
00246001.cdx
  Mrv0541 10181809492D          

 41 44  0  0  0  0            999 V2000
   -2.3543    4.4371    0.0000 C   0  0  0  0  0  0  0  0  0  0  0  0
   -1.6398    4.0246    0.0000 C   0  0  0  0  0  0  0  0  0  0  0  0
   -1.6398    3.1996    0.0000 C   0  0  0  0  0  0  0  0  0  0  0  0
   -2.3543    2.7871    0.0000 C   0  0  0  0  0  0  0  0  0  0  0  0
   -3.0688    3.1996    0.0000 C   0  0  0  0  0  0  0  0  0  0  0  0
   -3.0688    4.0246    0.0000 C   0  0  0  0  0  0  0  0  0  0  0  0
   -2.3543    1.9621    0.0000 N   0  0  0  0  0  0  0  0  0  0  0  0
   -5.2122    2.7871    0.0000 C   0  0  0  0  0  0  0  0  0  0  0  0
   -4.4977    2.3746    0.0000 C   0  0  0  0  0  0  0  0  0  0  0  0
   -3.7832    2.7871    0.0000 S   0  0  0  0  0  0  0  0  0  0  0  0
   -1.6398    1.5496    0.0000 C   0  0  0  0  0  0  0  0  0  0  0  0
   -4.4977    1.5496    0.0000 C   0  0  0  0  0  0  0  0  0  0  0  0
   -3.3707    2.0726    0.0000 O   0  0  0  0  0  0  0  0  0  0  0  0
   -4.1957    3.5015    0.0000 O   0  0  0  0  0  0  0  0  0  0  0  0
   -0.9254    1.9621    0.0000 C   0  0  0  0  0  0  0  0  0  0  0  0
   -0.2109    1.5496    0.0000 C   0  0  0  0  0  0  0  0  0  0  0  0
   -0.2109    0.7246    0.0000 N   0  0  0  0  0  0  0  0  0  0  0  0
   -0.9254    0.3121    0.0000 C   0  0  0  0  0  0  0  0  0  0  0  0
   -1.6398    0.7246    0.0000 N   0  0  0  0  0  0  0  0  0  0  0  0
   -0.9254    2.7871    0.0000 Cl  0  0  0  0  0  0  0  0  0  0  0  0
   -0.9254   -0.5129    0.0000 N   0  0  0  0  0  0  0  0  0  0  0  0
   -0.2109   -0.9254    0.0000 C   0  0  0  0  0  0  0  0  0  0  0  0
   -0.2109   -1.7504    0.0000 C   0  0  0  0  0  0  0  0  0  0  0  0
    0.5036   -2.1629    0.0000 C   0  0  0  0  0  0  0  0  0  0  0  0
    1.2181   -1.7504    0.0000 C   0  0  0  0  0  0  0  0  0  0  0  0
    1.2181   -0.9254    0.0000 C   0  0  0  0  0  0  0  0  0  0  0  0
    0.5036   -0.5129    0.0000 C   0  0  0  0  0  0  0  0  0  0  0  0
   -0.9254   -2.1629    0.0000 O   0  0  0  0  0  0  0  0  0  0  0  0
   -0.9254   -2.9879    0.0000 C   0  0  0  0  0  0  0  0  0  0  0  0
    1.9325   -2.1629    0.0000 C   0  0  0  0  0  0  0  0  0  0  0  0
    2.6470   -1.7504    0.0000 N   0  0  0  0  0  0  0  0  0  0  0  0
    2.6470   -0.9254    0.0000 C   0  0  0  0  0  0  0  0  0  0  0  0
    1.9325   -0.5129    0.0000 C   0  0  0  0  0  0  0  0  0  0  0  0
    3.3615   -2.1629    0.0000 C   0  0  0  0  0  0  0  0  0  0  0  0
    3.3615   -2.9879    0.0000 O   0  0  0  0  0  0  0  0  0  0  0  0
    1.5452   -2.8914    0.0000 C   0  0  0  0  0  0  0  0  0  0  0  0
    2.3198   -2.8914    0.0000 C   0  0  0  0  0  0  0  0  0  0  0  0
    4.0759   -1.7504    0.0000 C   0  0  0  0  0  0  0  0  0  0  0  0
    4.7904   -1.3379    0.0000 F   0  0  0  0  0  0  0  0  0  0  0  0
    4.4884   -2.4649    0.0000 F   0  0  0  0  0  0  0  0  0  0  0  0
    3.6634   -1.0360    0.0000 F   0  0  0  0  0  0  0  0  0  0  0  0
  1  2  4  0  0  0  0
  2  3  4  0  0  0  0
  3  4  4  0  0  0  0
  4  5  4  0  0  0  0
  5  6  4  0  0  0  0
  6  1  4  0  0  0  0
  4  7  1  0  0  0  0
  8  9  1  0  0  0  0
  9 10  1  0  0  0  0
 10  5  1  0  0  0  0
  7 11  1  0  0  0  0
  9 12  1  0  0  0  0
 10 13  2  0  0  0  0
 10 14  2  0  0  0  0
 11 15  4  0  0  0  0
 15 16  4  0  0  0  0
 16 17  4  0  0  0  0
 17 18  4  0  0  0  0
 18 19  4  0  0  0  0
 19 11  4  0  0  0  0
 15 20  1  0  0  0  0
 18 21  1  0  0  0  0
 21 22  1  0  0  0  0
 22 23  4  0  0  0  0
 23 24  4  0  0  0  0
 24 25  4  0  0  0  0
 25 26  4  0  0  0  0
 26 27  4  0  0  0  0
 27 22  4  0  0  0  0
 23 28  1  0  0  0  0
 28 29  1  0  0  0  0
 25 30  1  0  0  0  0
 30 31  1  0  0  0  0
 31 32  1  0  0  0  0
 32 33  1  0  0  0  0
 33 26  1  0  0  0  0
 31 34  1  0  0  0  0
 34 35  2  0  0  0  0
 30 36  1  0  0  0  0
 30 37  1  0  0  0  0
 34 38  1  0  0  0  0
 38 39  1  0  0  0  0
 38 40  1  0  0  0  0
 38 41  1  0  0  0  0
M  END
> <From>
www.bindingDB.org

> <BindingDB Reactant_set_id>
490422

> <Ligand InChI>
InChI=1S/C27H29ClF3N5O4S/c1-15(2)41(38,39)22-9-7-6-8-19(22)33-23-18(28)14-32-25(35-23)34-20-12-16-10-11-36(24(37)27(29,30)31)26(3,4)17(16)13-21(20)40-5/h6-9,12-15H,10-11H2,1-5H3,(H2,32,33,34,35)

> <Ligand InChI Key>
YVCJAEFPMZATFG-UHFFFAOYSA-N

> <BindingDB MonomerID>
243400

> <BindingDB Ligand Name>
1-(6-(5-chloro-4-(2-(isopropylsulfonyl)phenylamino)pyrimidin-2-yl)amino-7-methoxy-1,1-dimethyl-3,4-dihydroisoquinolin-2(1H)-yl)-2,2,2-trifluoroethane-1-one::US10053458, 32

> <Target Name Assigned by Curator or DataSource>
ALK tyrosine kinase receptor

> <Target Source Organism According to Curator or DataSource>
Homo sapiens

> <Ki (nM)>


> <IC50 (nM)>
<10.00

> <Kd (nM)>


> <EC50 (nM)>


> <kon (M-1-s-1)>


> <koff (s-1)>


> <pH>


> <Temp C>
25.00

> <Curation/DataSource>
US Patent

> <Article DOI>


> <PMID>


> <PubChem AID>


> <Patent Number>
US10053458

> <Authors>
Yun, CS; Kim, HR; Cho, SY; Jung, HJ; Lee, K; Chae, CH; Lee, CO; Park, CH; Kim, P; Hwang, JY; Ha, JD; Ahn, SJ

> <Institution>
KOREA RESEARCH INSTITUTE OF CHEMICAL TECHNOLOGY

> <Link to Ligand in BindingDB>
http://www.bindingdb.org/bind/chemsearch/marvin/MolStructure.jsp?monomerid=243400

> <Link to Ligand-Target Pair in BindingDB>
http://www.bindingdb.org/jsp/dbsearch/PrimarySearch_ki.jsp?energyterm=kJ/mole&tag=pol&polymerid=5809&target=ALK+tyrosine+kinase+receptor&column=ki&startPg=0&Increment=50&submit=Search

> <Link to Ligand-Target Pair in BindingDB>
http://www.bindingdb.org/jsp/dbsearch/PrimarySearch_ki.jsp?energyterm=kJ/mole&tag=r21&monomerid=243400&enzyme=ALK+tyrosine+kinase+receptor&column=ki&startPg=0&Increment=50&submit=Search

> <Ligand HET ID in PDB>


> <PDB ID(s) for Ligand-Target Complex>


> <PubChem CID>
129048452

> <PubChem SID>
376221783

> <ChEBI ID of Ligand>


> <ChEMBL ID of Ligand>


> <DrugBank ID of Ligand>


> <IUPHAR_GRAC ID of Ligand>


> <KEGG ID of Ligand>


> <ZINC ID of Ligand>


> <Number of Protein Chains in Target (>1 implies a multichain complex)>
1

> <BindingDB Target Chain Sequence>
MGAIGLLWLLPLLLSTAAVGSGMGTGQRAGSPAAGPPLQPREPLSYSRLQRKSLAVDFVVPSLFRVYARDLLLPPSSSELKAGRPEARGSLALDCAPLLRLLGPAPGVSWTAGSPAPAEARTLSRVLKGGSVRKLRRAKQLVLELGEEAILEGCVGPPGEAAVGLLQFNLSELFSWWIRQGEGRLRIRLMPEKKASEVGREGRLSAAIRASQPRLLFQIFGTGHSSLESPTNMPSPSPDYFTWNLTWIMKDSFPFLSHRSRYGLECSFDFPCELEYSPPLHDLRNQSWSWRRIPSEEASQMDLLDGPGAERSKEMPRGSFLLLNTSADSKHTILSPWMRSSSEHCTLAVSVHRHLQPSGRYIAQLLPHNEAAREILLMPTPGKHGWTVLQGRIGRPDNPFRVALEYISSGNRSLSAVDFFALKNCSEGTSPGSKMALQSSFTCWNGTVLQLGQACDFHQDCAQGEDESQMCRKLPVGFYCNFEDGFCGWTQGTLSPHTPQWQVRTLKDARFQDHQDHALLLSTTDVPASESATVTSATFPAPIKSSPCELRMSWLIRGVLRGNVSLVLVENKTGKEQGRMVWHVAAYEGLSLWQWMVLPLLDVSDRFWLQMVAWWGQGSRAIVAFDNISISLDCYLTISGEDKILQNTAPKSRNLFERNPNKELKPGENSPRQTPIFDPTVHWLFTTCGASGPHGPTQAQCNNAYQNSNLSVEVGSEGPLKGIQIWKVPATDTYSISGYGAAGGKGGKNTMMRSHGVSVLGIFNLEKDDMLYILVGQQGEDACPSTNQLIQKVCIGENNVIEEEIRVNRSVHEWAGGGGGGGGATYVFKMKDGVPVPLIIAAGGGGRAYGAKTDTFHPERLENNSSVLGLNGNSGAAGGGGGWNDNTSLLWAGKSLQEGATGGHSCPQAMKKWGWETRGGFGGGGGGCSSGGGGGGYIGGNAASNNDPEMDGEDGVSFISPLGILYTPALKVMEGHGEVNIKHYLNCSHCEVDECHMDPESHKVICFCDHGTVLAEDGVSCIVSPTPEPHLPLSLILSVVTSALVAALVLAFSGIMIVYRRKHQELQAMQMELQSPEYKLSKLRTSTIMTDYNPNYCFAGKTSSISDLKEVPRKNITLIRGLGHGAFGEVYEGQVSGMPNDPSPLQVAVKTLPEVCSEQDELDFLMEALIISKFNHQNIVRCIGVSLQSLPRFILLELMAGGDLKSFLRETRPRPSQPSSLAMLDLLHVARDIACGCQYLEENHFIHRDIAARNCLLTCPGPGRVAKIGDFGMARDIYRASYYRKGGCAMLPVKWMPPEAFMEGIFTSKTDTWSFGVLLWEIFSLGYMPYPSKSNQEVLEFVTSGGRMDPPKNCPGPVYRIMTQCWQHQPEDRPNFAIILERIEYCTQDPDVINTALPIEYGPLVEEEEKVPVRPKDPEGVPPLLVSQQAKREEERSPAAPPPLPTTSSGKAAKKPTAAEISVRVPRGPAVEGGHVNMAFSQSNPPSELHKVHGSRNKPTSLWNPTYGSWFTEKPTKKNNPIAKKEPHDRGNLGLEGSCTVPPNVATGRLPGASLLLEPSSLTANMKEVPLFRLRHFPCGNVNYGYQQQGLPLEAATAPGAGHYEDTILKSKNSMNQPGP

> <PDB ID(s) of Target Chain>
2XB7,2XBA,3AOX,5FTO,5FTQ,6E0R,6EBW,6EDL,6MX8

> <UniProt (SwissProt) Recommended Name of Target Chain>
ALK tyrosine kinase receptor

> <UniProt (SwissProt) Entry Name of Target Chain>
ALK_HUMAN

> <UniProt (SwissProt) Primary ID of Target Chain>
Q9UM73

> <UniProt (SwissProt) Secondary ID(s) of Target Chain>
Q4ZFX9,Q53QQ6,Q53RZ4,Q59FI3,Q9Y4K6

> <UniProt (SwissProt) Alternative ID(s) of Target Chain>


> <UniProt (TrEMBL) Submitted Name of Target Chain>


> <UniProt (TrEMBL) Entry Name of Target Chain>


> <UniProt (TrEMBL) Primary ID of Target Chain>


> <UniProt (TrEMBL) Secondary ID(s) of Target Chain>


> <UniProt (TrEMBL) Alternative ID(s) of Target Chain>


$$$$
00251001.cdx
  Mrv0541 10181809492D          

 35 38  0  0  0  0            999 V2000
   -3.5724    1.9115    0.0000 C   0  0  0  0  0  0  0  0  0  0  0  0
   -3.5724    1.0865    0.0000 C   0  0  0  0  0  0  0  0  0  0  0  0
   -2.8579    0.6740    0.0000 C   0  0  0  0  0  0  0  0  0  0  0  0
   -2.1434    1.0865    0.0000 C   0  0  0  0  0  0  0  0  0  0  0  0
   -2.1434    1.9115    0.0000 C   0  0  0  0  0  0  0  0  0  0  0  0
   -2.8579    2.3240    0.0000 C   0  0  0  0  0  0  0  0  0  0  0  0
   -1.4289    0.6740    0.0000 N   0  0  0  0  0  0  0  0  0  0  0  0
   -0.7145    1.0865    0.0000 C   0  0  0  0  0  0  0  0  0  0  0  0
   -0.7145    1.9115    0.0000 C   0  0  0  0  0  0  0  0  0  0  0  0
   -1.4289    2.3240    0.0000 S   0  0  0  0  0  0  0  0  0  0  0  0
   -1.4289   -0.1510    0.0000 C   0  0  0  0  0  0  0  0  0  0  0  0
    0.0000    2.3240    0.0000 C   0  0  0  0  0  0  0  0  0  0  0  0
   -1.0164    3.0385    0.0000 O   0  0  0  0  0  0  0  0  0  0  0  0
   -2.0123    2.9074    0.0000 O   0  0  0  0  0  0  0  0  0  0  0  0
   -2.1434   -0.5635    0.0000 C   0  0  0  0  0  0  0  0  0  0  0  0
   -2.1434   -1.3885    0.0000 C   0  0  0  0  0  0  0  0  0  0  0  0
   -1.4289   -1.8010    0.0000 N   0  0  0  0  0  0  0  0  0  0  0  0
   -0.7145   -1.3885    0.0000 C   0  0  0  0  0  0  0  0  0  0  0  0
   -0.7145   -0.5635    0.0000 N   0  0  0  0  0  0  0  0  0  0  0  0
   -2.8579   -0.1510    0.0000 Cl  0  0  0  0  0  0  0  0  0  0  0  0
    0.0000   -1.8010    0.0000 N   0  0  0  0  0  0  0  0  0  0  0  0
    0.7145   -1.3885    0.0000 C   0  0  0  0  0  0  0  0  0  0  0  0
    1.4289   -1.8010    0.0000 C   0  0  0  0  0  0  0  0  0  0  0  0
    2.1434   -1.3885    0.0000 C   0  0  0  0  0  0  0  0  0  0  0  0
    2.1434   -0.5635    0.0000 C   0  0  0  0  0  0  0  0  0  0  0  0
    1.4289   -0.1510    0.0000 C   0  0  0  0  0  0  0  0  0  0  0  0
    0.7145   -0.5635    0.0000 C   0  0  0  0  0  0  0  0  0  0  0  0
    1.4289   -2.6260    0.0000 O   0  0  0  0  0  0  0  0  0  0  0  0
    2.1434   -3.0385    0.0000 C   0  0  0  0  0  0  0  0  0  0  0  0
    2.8579   -0.1510    0.0000 C   0  0  0  0  0  0  0  0  0  0  0  0
    2.8579    0.6740    0.0000 N   0  0  0  0  0  0  0  0  0  0  0  0
    2.1434    1.0865    0.0000 C   0  0  0  0  0  0  0  0  0  0  0  0
    1.4289    0.6740    0.0000 C   0  0  0  0  0  0  0  0  0  0  0  0
    3.5724   -0.5635    0.0000 C   0  0  0  0  0  0  0  0  0  0  0  0
    3.5724    0.2615    0.0000 C   0  0  0  0  0  0  0  0  0  0  0  0
  1  2  4  0  0  0  0
  2  3  4  0  0  0  0
  3  4  4  0  0  0  0
  4  5  4  0  0  0  0
  5  6  4  0  0  0  0
  6  1  4  0  0  0  0
  4  7  1  0  0  0  0
  8  9  1  0  0  0  0
  9 10  1  0  0  0  0
 10  5  1  0  0  0  0
  7 11  1  0  0  0  0
  9 12  1  0  0  0  0
 10 13  2  0  0  0  0
 10 14  2  0  0  0  0
 11 15  4  0  0  0  0
 15 16  4  0  0  0  0
 16 17  4  0  0  0  0
 17 18  4  0  0  0  0
 18 19  4  0  0  0  0
 19 11  4  0  0  0  0
 15 20  1  0  0  0  0
 18 21  1  0  0  0  0
 21 22  1  0  0  0  0
 22 23  4  0  0  0  0
 23 24  4  0  0  0  0
 24 25  4  0  0  0  0
 25 26  4  0  0  0  0
 26 27  4  0  0  0  0
 27 22  4  0  0  0  0
 23 28  1  0  0  0  0
 28 29  1  0  0  0  0
 25 30  1  0  0  0  0
 30 31  1  0  0  0  0
 31 32  1  0  0  0  0
 32 33  1  0  0  0  0
 33 26  1  0  0  0  0
 30 34  1  0  0  0  0
 30 35  1  0  0  0  0
M  END
> <From>
www.bindingDB.org

> <BindingDB Reactant_set_id>
490560

> <Ligand InChI>
InChI=1S/C25H30ClN5O3S/c1-15(2)35(32,33)22-9-7-6-8-19(22)29-23-18(26)14-27-24(31-23)30-20-12-16-10-11-28-25(3,4)17(16)13-21(20)34-5/h6-9,12-15,28H,10-11H2,1-5H3,(H2,27,29,30,31)

> <Ligand InChI Key>
XBJYPECXRASMSS-UHFFFAOYSA-N

> <BindingDB MonomerID>
243401

> <BindingDB Ligand Name>
5-chloro-N4-(2-(isopropylsulfonyl)phenyl)-N2-(7-methoxy-1,1-dimethyl-1,2,3,4-tetrahydroisoquinolin-6-yl)pyrimidine-2,4-diamine::US10053458, 101::US10053458, 33

> <Target Name Assigned by Curator or DataSource>
ALK tyrosine kinase receptor

> <Target Source Organism According to Curator or DataSource>
Homo sapiens

> <Ki (nM)>


> <IC50 (nM)>
<10.00

> <Kd (nM)>


> <EC50 (nM)>


> <kon (M-1-s-1)>


> <koff (s-1)>


> <pH>


> <Temp C>
25.00

> <Curation/DataSource>
US Patent

> <Article DOI>


> <PMID>


> <PubChem AID>


> <Patent Number>
US10053458

> <Authors>
Yun, CS; Kim, HR; Cho, SY; Jung, HJ; Lee, K; Chae, CH; Lee, CO; Park, CH; Kim, P; Hwang, JY; Ha, JD; Ahn, SJ

> <Institution>
KOREA RESEARCH INSTITUTE OF CHEMICAL TECHNOLOGY

> <Link to Ligand in BindingDB>
http://www.bindingdb.org/bind/chemsearch/marvin/MolStructure.jsp?monomerid=243401

> <Link to Ligand-Target Pair in BindingDB>
http://www.bindingdb.org/jsp/dbsearch/PrimarySearch_ki.jsp?energyterm=kJ/mole&tag=pol&polymerid=5809&target=ALK+tyrosine+kinase+receptor&column=ki&startPg=0&Increment=50&submit=Search

> <Link to Ligand-Target Pair in BindingDB>
http://www.bindingdb.org/jsp/dbsearch/PrimarySearch_ki.jsp?energyterm=kJ/mole&tag=r21&monomerid=243401&enzyme=ALK+tyrosine+kinase+receptor&column=ki&startPg=0&Increment=50&submit=Search

> <Ligand HET ID in PDB>


> <PDB ID(s) for Ligand-Target Complex>


> <PubChem CID>
129048445

> <PubChem SID>
376221784

> <ChEBI ID of Ligand>


> <ChEMBL ID of Ligand>


> <DrugBank ID of Ligand>


> <IUPHAR_GRAC ID of Ligand>


> <KEGG ID of Ligand>


> <ZINC ID of Ligand>


> <Number of Protein Chains in Target (>1 implies a multichain complex)>
1

> <BindingDB Target Chain Sequence>
MGAIGLLWLLPLLLSTAAVGSGMGTGQRAGSPAAGPPLQPREPLSYSRLQRKSLAVDFVVPSLFRVYARDLLLPPSSSELKAGRPEARGSLALDCAPLLRLLGPAPGVSWTAGSPAPAEARTLSRVLKGGSVRKLRRAKQLVLELGEEAILEGCVGPPGEAAVGLLQFNLSELFSWWIRQGEGRLRIRLMPEKKASEVGREGRLSAAIRASQPRLLFQIFGTGHSSLESPTNMPSPSPDYFTWNLTWIMKDSFPFLSHRSRYGLECSFDFPCELEYSPPLHDLRNQSWSWRRIPSEEASQMDLLDGPGAERSKEMPRGSFLLLNTSADSKHTILSPWMRSSSEHCTLAVSVHRHLQPSGRYIAQLLPHNEAAREILLMPTPGKHGWTVLQGRIGRPDNPFRVALEYISSGNRSLSAVDFFALKNCSEGTSPGSKMALQSSFTCWNGTVLQLGQACDFHQDCAQGEDESQMCRKLPVGFYCNFEDGFCGWTQGTLSPHTPQWQVRTLKDARFQDHQDHALLLSTTDVPASESATVTSATFPAPIKSSPCELRMSWLIRGVLRGNVSLVLVENKTGKEQGRMVWHVAAYEGLSLWQWMVLPLLDVSDRFWLQMVAWWGQGSRAIVAFDNISISLDCYLTISGEDKILQNTAPKSRNLFERNPNKELKPGENSPRQTPIFDPTVHWLFTTCGASGPHGPTQAQCNNAYQNSNLSVEVGSEGPLKGIQIWKVPATDTYSISGYGAAGGKGGKNTMMRSHGVSVLGIFNLEKDDMLYILVGQQGEDACPSTNQLIQKVCIGENNVIEEEIRVNRSVHEWAGGGGGGGGATYVFKMKDGVPVPLIIAAGGGGRAYGAKTDTFHPERLENNSSVLGLNGNSGAAGGGGGWNDNTSLLWAGKSLQEGATGGHSCPQAMKKWGWETRGGFGGGGGGCSSGGGGGGYIGGNAASNNDPEMDGEDGVSFISPLGILYTPALKVMEGHGEVNIKHYLNCSHCEVDECHMDPESHKVICFCDHGTVLAEDGVSCIVSPTPEPHLPLSLILSVVTSALVAALVLAFSGIMIVYRRKHQELQAMQMELQSPEYKLSKLRTSTIMTDYNPNYCFAGKTSSISDLKEVPRKNITLIRGLGHGAFGEVYEGQVSGMPNDPSPLQVAVKTLPEVCSEQDELDFLMEALIISKFNHQNIVRCIGVSLQSLPRFILLELMAGGDLKSFLRETRPRPSQPSSLAMLDLLHVARDIACGCQYLEENHFIHRDIAARNCLLTCPGPGRVAKIGDFGMARDIYRASYYRKGGCAMLPVKWMPPEAFMEGIFTSKTDTWSFGVLLWEIFSLGYMPYPSKSNQEVLEFVTSGGRMDPPKNCPGPVYRIMTQCWQHQPEDRPNFAIILERIEYCTQDPDVINTALPIEYGPLVEEEEKVPVRPKDPEGVPPLLVSQQAKREEERSPAAPPPLPTTSSGKAAKKPTAAEISVRVPRGPAVEGGHVNMAFSQSNPPSELHKVHGSRNKPTSLWNPTYGSWFTEKPTKKNNPIAKKEPHDRGNLGLEGSCTVPPNVATGRLPGASLLLEPSSLTANMKEVPLFRLRHFPCGNVNYGYQQQGLPLEAATAPGAGHYEDTILKSKNSMNQPGP

> <PDB ID(s) of Target Chain>
2XB7,2XBA,3AOX,5FTO,5FTQ,6E0R,6EBW,6EDL,6MX8

> <UniProt (SwissProt) Recommended Name of Target Chain>
ALK tyrosine kinase receptor

> <UniProt (SwissProt) Entry Name of Target Chain>
ALK_HUMAN

> <UniProt (SwissProt) Primary ID of Target Chain>
Q9UM73

> <UniProt (SwissProt) Secondary ID(s) of Target Chain>
Q4ZFX9,Q53QQ6,Q53RZ4,Q59FI3,Q9Y4K6

> <UniProt (SwissProt) Alternative ID(s) of Target Chain>


> <UniProt (TrEMBL) Submitted Name of Target Chain>


> <UniProt (TrEMBL) Entry Name of Target Chain>


> <UniProt (TrEMBL) Primary ID of Target Chain>


> <UniProt (TrEMBL) Secondary ID(s) of Target Chain>


> <UniProt (TrEMBL) Alternative ID(s) of Target Chain>


$$$$
00252001.cdx
  Mrv0541 10181809492D          

 33 36  0  0  0  0            999 V2000
   -3.2151    1.9115    0.0000 C   0  0  0  0  0  0  0  0  0  0  0  0
   -3.2151    1.0865    0.0000 C   0  0  0  0  0  0  0  0  0  0  0  0
   -2.5006    0.6740    0.0000 C   0  0  0  0  0  0  0  0  0  0  0  0
   -1.7862    1.0865    0.0000 C   0  0  0  0  0  0  0  0  0  0  0  0
   -1.7862    1.9115    0.0000 C   0  0  0  0  0  0  0  0  0  0  0  0
   -2.5006    2.3240    0.0000 C   0  0  0  0  0  0  0  0  0  0  0  0
   -1.0717    0.6740    0.0000 N   0  0  0  0  0  0  0  0  0  0  0  0
   -0.3572    1.0865    0.0000 C   0  0  0  0  0  0  0  0  0  0  0  0
   -0.3572    1.9115    0.0000 C   0  0  0  0  0  0  0  0  0  0  0  0
   -1.0717    2.3240    0.0000 S   0  0  0  0  0  0  0  0  0  0  0  0
   -1.0717   -0.1510    0.0000 C   0  0  0  0  0  0  0  0  0  0  0  0
    0.3572    2.3240    0.0000 C   0  0  0  0  0  0  0  0  0  0  0  0
   -0.6592    3.0385    0.0000 O   0  0  0  0  0  0  0  0  0  0  0  0
   -1.6551    2.9074    0.0000 O   0  0  0  0  0  0  0  0  0  0  0  0
   -1.7862   -0.5635    0.0000 C   0  0  0  0  0  0  0  0  0  0  0  0
   -1.7862   -1.3885    0.0000 C   0  0  0  0  0  0  0  0  0  0  0  0
   -1.0717   -1.8010    0.0000 N   0  0  0  0  0  0  0  0  0  0  0  0
   -0.3572   -1.3885    0.0000 C   0  0  0  0  0  0  0  0  0  0  0  0
   -0.3572   -0.5635    0.0000 N   0  0  0  0  0  0  0  0  0  0  0  0
   -2.5006   -0.1510    0.0000 Cl  0  0  0  0  0  0  0  0  0  0  0  0
    0.3572   -1.8010    0.0000 N   0  0  0  0  0  0  0  0  0  0  0  0
    1.0717   -1.3885    0.0000 C   0  0  0  0  0  0  0  0  0  0  0  0
    1.7862   -1.8010    0.0000 C   0  0  0  0  0  0  0  0  0  0  0  0
    2.5006   -1.3885    0.0000 C   0  0  0  0  0  0  0  0  0  0  0  0
    2.5006   -0.5635    0.0000 C   0  0  0  0  0  0  0  0  0  0  0  0
    1.7862   -0.1510    0.0000 C   0  0  0  0  0  0  0  0  0  0  0  0
    1.0717   -0.5635    0.0000 C   0  0  0  0  0  0  0  0  0  0  0  0
    1.7862   -2.6260    0.0000 O   0  0  0  0  0  0  0  0  0  0  0  0
    2.5006   -3.0385    0.0000 C   0  0  0  0  0  0  0  0  0  0  0  0
    3.2151   -0.1510    0.0000 C   0  0  0  0  0  0  0  0  0  0  0  0
    3.2151    0.6740    0.0000 C   0  0  0  0  0  0  0  0  0  0  0  0
    2.5006    1.0865    0.0000 N   0  0  0  0  0  0  0  0  0  0  0  0
    1.7862    0.6740    0.0000 C   0  0  0  0  0  0  0  0  0  0  0  0
  1  2  4  0  0  0  0
  2  3  4  0  0  0  0
  3  4  4  0  0  0  0
  4  5  4  0  0  0  0
  5  6  4  0  0  0  0
  6  1  4  0  0  0  0
  4  7  1  0  0  0  0
  8  9  1  0  0  0  0
  9 10  1  0  0  0  0
 10  5  1  0  0  0  0
  7 11  1  0  0  0  0
  9 12  1  0  0  0  0
 10 13  2  0  0  0  0
 10 14  2  0  0  0  0
 11 15  4  0  0  0  0
 15 16  4  0  0  0  0
 16 17  4  0  0  0  0
 17 18  4  0  0  0  0
 18 19  4  0  0  0  0
 19 11  4  0  0  0  0
 15 20  1  0  0  0  0
 18 21  1  0  0  0  0
 21 22  1  0  0  0  0
 22 23  4  0  0  0  0
 23 24  4  0  0  0  0
 24 25  4  0  0  0  0
 25 26  4  0  0  0  0
 26 27  4  0  0  0  0
 27 22  4  0  0  0  0
 23 28  1  0  0  0  0
 28 29  1  0  0  0  0
 25 30  1  0  0  0  0
 30 31  1  0  0  0  0
 31 32  1  0  0  0  0
 32 33  1  0  0  0  0
 33 26  1  0  0  0  0
M  END
> <From>
www.bindingDB.org

> <BindingDB Reactant_set_id>
490426

> <Ligand InChI>
InChI=1S/C23H26ClN5O3S/c1-14(2)33(30,31)21-7-5-4-6-18(21)27-22-17(24)13-26-23(29-22)28-19-10-16-12-25-9-8-15(16)11-20(19)32-3/h4-7,10-11,13-14,25H,8-9,12H2,1-3H3,(H2,26,27,28,29)

> <Ligand InChI Key>
ZTQDHDMZXGLFHJ-UHFFFAOYSA-N

> <BindingDB MonomerID>
243402

> <BindingDB Ligand Name>
5-chloro-N4-(2-(isopropylsulfonyl)phenyl)-N2-(6-methoxy-1,2,3,4-tetrahydroisoquinolin-7-yl)pyrimidine-2,4-diamine::US10053458, 34

> <Target Name Assigned by Curator or DataSource>
ALK tyrosine kinase receptor

> <Target Source Organism According to Curator or DataSource>
Homo sapiens

> <Ki (nM)>


> <IC50 (nM)>
 1.000

> <Kd (nM)>


> <EC50 (nM)>


> <kon (M-1-s-1)>


> <koff (s-1)>


> <pH>


> <Temp C>
25.00

> <Curation/DataSource>
US Patent

> <Article DOI>


> <PMID>


> <PubChem AID>


> <Patent Number>
US10053458

> <Authors>
Yun, CS; Kim, HR; Cho, SY; Jung, HJ; Lee, K; Chae, CH; Lee, CO; Park, CH; Kim, P; Hwang, JY; Ha, JD; Ahn, SJ

> <Institution>
KOREA RESEARCH INSTITUTE OF CHEMICAL TECHNOLOGY

> <Link to Ligand in BindingDB>
http://www.bindingdb.org/bind/chemsearch/marvin/MolStructure.jsp?monomerid=243402

> <Link to Ligand-Target Pair in BindingDB>
http://www.bindingdb.org/jsp/dbsearch/PrimarySearch_ki.jsp?energyterm=kJ/mole&tag=pol&polymerid=5809&target=ALK+tyrosine+kinase+receptor&column=ki&startPg=0&Increment=50&submit=Search

> <Link to Ligand-Target Pair in BindingDB>
http://www.bindingdb.org/jsp/dbsearch/PrimarySearch_ki.jsp?energyterm=kJ/mole&tag=r21&monomerid=243402&enzyme=ALK+tyrosine+kinase+receptor&column=ki&startPg=0&Increment=50&submit=Search

> <Ligand HET ID in PDB>


> <PDB ID(s) for Ligand-Target Complex>


> <PubChem CID>
129048469

> <PubChem SID>
376221785

> <ChEBI ID of Ligand>


> <ChEMBL ID of Ligand>


> <DrugBank ID of Ligand>


> <IUPHAR_GRAC ID of Ligand>


> <KEGG ID of Ligand>


> <ZINC ID of Ligand>


> <Number of Protein Chains in Target (>1 implies a multichain complex)>
1

> <BindingDB Target Chain Sequence>
MGAIGLLWLLPLLLSTAAVGSGMGTGQRAGSPAAGPPLQPREPLSYSRLQRKSLAVDFVVPSLFRVYARDLLLPPSSSELKAGRPEARGSLALDCAPLLRLLGPAPGVSWTAGSPAPAEARTLSRVLKGGSVRKLRRAKQLVLELGEEAILEGCVGPPGEAAVGLLQFNLSELFSWWIRQGEGRLRIRLMPEKKASEVGREGRLSAAIRASQPRLLFQIFGTGHSSLESPTNMPSPSPDYFTWNLTWIMKDSFPFLSHRSRYGLECSFDFPCELEYSPPLHDLRNQSWSWRRIPSEEASQMDLLDGPGAERSKEMPRGSFLLLNTSADSKHTILSPWMRSSSEHCTLAVSVHRHLQPSGRYIAQLLPHNEAAREILLMPTPGKHGWTVLQGRIGRPDNPFRVALEYISSGNRSLSAVDFFALKNCSEGTSPGSKMALQSSFTCWNGTVLQLGQACDFHQDCAQGEDESQMCRKLPVGFYCNFEDGFCGWTQGTLSPHTPQWQVRTLKDARFQDHQDHALLLSTTDVPASESATVTSATFPAPIKSSPCELRMSWLIRGVLRGNVSLVLVENKTGKEQGRMVWHVAAYEGLSLWQWMVLPLLDVSDRFWLQMVAWWGQGSRAIVAFDNISISLDCYLTISGEDKILQNTAPKSRNLFERNPNKELKPGENSPRQTPIFDPTVHWLFTTCGASGPHGPTQAQCNNAYQNSNLSVEVGSEGPLKGIQIWKVPATDTYSISGYGAAGGKGGKNTMMRSHGVSVLGIFNLEKDDMLYILVGQQGEDACPSTNQLIQKVCIGENNVIEEEIRVNRSVHEWAGGGGGGGGATYVFKMKDGVPVPLIIAAGGGGRAYGAKTDTFHPERLENNSSVLGLNGNSGAAGGGGGWNDNTSLLWAGKSLQEGATGGHSCPQAMKKWGWETRGGFGGGGGGCSSGGGGGGYIGGNAASNNDPEMDGEDGVSFISPLGILYTPALKVMEGHGEVNIKHYLNCSHCEVDECHMDPESHKVICFCDHGTVLAEDGVSCIVSPTPEPHLPLSLILSVVTSALVAALVLAFSGIMIVYRRKHQELQAMQMELQSPEYKLSKLRTSTIMTDYNPNYCFAGKTSSISDLKEVPRKNITLIRGLGHGAFGEVYEGQVSGMPNDPSPLQVAVKTLPEVCSEQDELDFLMEALIISKFNHQNIVRCIGVSLQSLPRFILLELMAGGDLKSFLRETRPRPSQPSSLAMLDLLHVARDIACGCQYLEENHFIHRDIAARNCLLTCPGPGRVAKIGDFGMARDIYRASYYRKGGCAMLPVKWMPPEAFMEGIFTSKTDTWSFGVLLWEIFSLGYMPYPSKSNQEVLEFVTSGGRMDPPKNCPGPVYRIMTQCWQHQPEDRPNFAIILERIEYCTQDPDVINTALPIEYGPLVEEEEKVPVRPKDPEGVPPLLVSQQAKREEERSPAAPPPLPTTSSGKAAKKPTAAEISVRVPRGPAVEGGHVNMAFSQSNPPSELHKVHGSRNKPTSLWNPTYGSWFTEKPTKKNNPIAKKEPHDRGNLGLEGSCTVPPNVATGRLPGASLLLEPSSLTANMKEVPLFRLRHFPCGNVNYGYQQQGLPLEAATAPGAGHYEDTILKSKNSMNQPGP

> <PDB ID(s) of Target Chain>
2XB7,2XBA,3AOX,5FTO,5FTQ,6E0R,6EBW,6EDL,6MX8

> <UniProt (SwissProt) Recommended Name of Target Chain>
ALK tyrosine kinase receptor

> <UniProt (SwissProt) Entry Name of Target Chain>
ALK_HUMAN

> <UniProt (SwissProt) Primary ID of Target Chain>
Q9UM73

> <UniProt (SwissProt) Secondary ID(s) of Target Chain>
Q4ZFX9,Q53QQ6,Q53RZ4,Q59FI3,Q9Y4K6

> <UniProt (SwissProt) Alternative ID(s) of Target Chain>


> <UniProt (TrEMBL) Submitted Name of Target Chain>


> <UniProt (TrEMBL) Entry Name of Target Chain>


> <UniProt (TrEMBL) Primary ID of Target Chain>


> <UniProt (TrEMBL) Secondary ID(s) of Target Chain>


> <UniProt (TrEMBL) Alternative ID(s) of Target Chain>


$$$$
00253001.cdx
  Mrv0541 10181809492D          

 34 37  0  0  0  0            999 V2000
   -3.2151    1.9115    0.0000 C   0  0  0  0  0  0  0  0  0  0  0  0
   -3.2151    1.0865    0.0000 C   0  0  0  0  0  0  0  0  0  0  0  0
   -2.5006    0.6740    0.0000 C   0  0  0  0  0  0  0  0  0  0  0  0
   -1.7862    1.0865    0.0000 C   0  0  0  0  0  0  0  0  0  0  0  0
   -1.7862    1.9115    0.0000 C   0  0  0  0  0  0  0  0  0  0  0  0
   -2.5006    2.3240    0.0000 C   0  0  0  0  0  0  0  0  0  0  0  0
   -1.0717    0.6740    0.0000 N   0  0  0  0  0  0  0  0  0  0  0  0
   -0.3572    1.0865    0.0000 C   0  0  0  0  0  0  0  0  0  0  0  0
   -0.3572    1.9115    0.0000 C   0  0  0  0  0  0  0  0  0  0  0  0
   -1.0717    2.3240    0.0000 S   0  0  0  0  0  0  0  0  0  0  0  0
   -1.0717   -0.1510    0.0000 C   0  0  0  0  0  0  0  0  0  0  0  0
    0.3572    2.3240    0.0000 C   0  0  0  0  0  0  0  0  0  0  0  0
   -0.6592    3.0385    0.0000 O   0  0  0  0  0  0  0  0  0  0  0  0
   -1.6551    2.9074    0.0000 O   0  0  0  0  0  0  0  0  0  0  0  0
   -1.7862   -0.5635    0.0000 C   0  0  0  0  0  0  0  0  0  0  0  0
   -1.7862   -1.3885    0.0000 C   0  0  0  0  0  0  0  0  0  0  0  0
   -1.0717   -1.8010    0.0000 N   0  0  0  0  0  0  0  0  0  0  0  0
   -0.3572   -1.3885    0.0000 C   0  0  0  0  0  0  0  0  0  0  0  0
   -0.3572   -0.5635    0.0000 N   0  0  0  0  0  0  0  0  0  0  0  0
   -2.5006   -0.1510    0.0000 Cl  0  0  0  0  0  0  0  0  0  0  0  0
    0.3572   -1.8010    0.0000 N   0  0  0  0  0  0  0  0  0  0  0  0
    1.0717   -1.3885    0.0000 C   0  0  0  0  0  0  0  0  0  0  0  0
    1.7862   -1.8010    0.0000 C   0  0  0  0  0  0  0  0  0  0  0  0
    2.5006   -1.3885    0.0000 C   0  0  0  0  0  0  0  0  0  0  0  0
    2.5006   -0.5635    0.0000 C   0  0  0  0  0  0  0  0  0  0  0  0
    1.7862   -0.1510    0.0000 C   0  0  0  0  0  0  0  0  0  0  0  0
    1.0717   -0.5635    0.0000 C   0  0  0  0  0  0  0  0  0  0  0  0
    1.7862   -2.6260    0.0000 O   0  0  0  0  0  0  0  0  0  0  0  0
    2.5006   -3.0385    0.0000 C   0  0  0  0  0  0  0  0  0  0  0  0
    3.2151   -0.1510    0.0000 C   0  0  0  0  0  0  0  0  0  0  0  0
    3.2151    0.6740    0.0000 C   0  0  0  0  0  0  0  0  0  0  0  0
    2.5006    1.0865    0.0000 N   0  0  0  0  0  0  0  0  0  0  0  0
    1.7862    0.6740    0.0000 C   0  0  0  0  0  0  0  0  0  0  0  0
    2.5006    1.9115    0.0000 C   0  0  0  0  0  0  0  0  0  0  0  0
  1  2  4  0  0  0  0
  2  3  4  0  0  0  0
  3  4  4  0  0  0  0
  4  5  4  0  0  0  0
  5  6  4  0  0  0  0
  6  1  4  0  0  0  0
  4  7  1  0  0  0  0
  8  9  1  0  0  0  0
  9 10  1  0  0  0  0
 10  5  1  0  0  0  0
  7 11  1  0  0  0  0
  9 12  1  0  0  0  0
 10 13  2  0  0  0  0
 10 14  2  0  0  0  0
 11 15  4  0  0  0  0
 15 16  4  0  0  0  0
 16 17  4  0  0  0  0
 17 18  4  0  0  0  0
 18 19  4  0  0  0  0
 19 11  4  0  0  0  0
 15 20  1  0  0  0  0
 18 21  1  0  0  0  0
 21 22  1  0  0  0  0
 22 23  4  0  0  0  0
 23 24  4  0  0  0  0
 24 25  4  0  0  0  0
 25 26  4  0  0  0  0
 26 27  4  0  0  0  0
 27 22  4  0  0  0  0
 23 28  1  0  0  0  0
 28 29  1  0  0  0  0
 25 30  1  0  0  0  0
 30 31  1  0  0  0  0
 31 32  1  0  0  0  0
 32 33  1  0  0  0  0
 33 26  1  0  0  0  0
 32 34  1  0  0  0  0
M  END
> <From>
www.bindingDB.org

> <BindingDB Reactant_set_id>
490428

> <Ligand InChI>
InChI=1S/C24H28ClN5O3S/c1-15(2)34(31,32)22-8-6-5-7-19(22)27-23-18(25)13-26-24(29-23)28-20-11-17-14-30(3)10-9-16(17)12-21(20)33-4/h5-8,11-13,15H,9-10,14H2,1-4H3,(H2,26,27,28,29)

> <Ligand InChI Key>
FKFTVEPJIOFORF-UHFFFAOYSA-N

> <BindingDB MonomerID>
243403

> <BindingDB Ligand Name>
5-chloro-N4-(2-(isopropylsulfonyl)phenyl)-N2-(6-methoxy-2-methyl-1,2,3,4-tetrahydroisoquinolin-7-yl)pyrimidine-2,4-diamine::US10053458, 35

> <Target Name Assigned by Curator or DataSource>
ALK tyrosine kinase receptor

> <Target Source Organism According to Curator or DataSource>
Homo sapiens

> <Ki (nM)>


> <IC50 (nM)>
<10.00

> <Kd (nM)>


> <EC50 (nM)>


> <kon (M-1-s-1)>


> <koff (s-1)>


> <pH>


> <Temp C>
25.00

> <Curation/DataSource>
US Patent

> <Article DOI>


> <PMID>


> <PubChem AID>


> <Patent Number>
US10053458

> <Authors>
Yun, CS; Kim, HR; Cho, SY; Jung, HJ; Lee, K; Chae, CH; Lee, CO; Park, CH; Kim, P; Hwang, JY; Ha, JD; Ahn, SJ

> <Institution>
KOREA RESEARCH INSTITUTE OF CHEMICAL TECHNOLOGY

> <Link to Ligand in BindingDB>
http://www.bindingdb.org/bind/chemsearch/marvin/MolStructure.jsp?monomerid=243403

> <Link to Ligand-Target Pair in BindingDB>
http://www.bindingdb.org/jsp/dbsearch/PrimarySearch_ki.jsp?energyterm=kJ/mole&tag=pol&polymerid=5809&target=ALK+tyrosine+kinase+receptor&column=ki&startPg=0&Increment=50&submit=Search

> <Link to Ligand-Target Pair in BindingDB>
http://www.bindingdb.org/jsp/dbsearch/PrimarySearch_ki.jsp?energyterm=kJ/mole&tag=r21&monomerid=243403&enzyme=ALK+tyrosine+kinase+receptor&column=ki&startPg=0&Increment=50&submit=Search

> <Ligand HET ID in PDB>


> <PDB ID(s) for Ligand-Target Complex>


> <PubChem CID>
129048479

> <PubChem SID>
376221786

> <ChEBI ID of Ligand>


> <ChEMBL ID of Ligand>


> <DrugBank ID of Ligand>


> <IUPHAR_GRAC ID of Ligand>


> <KEGG ID of Ligand>


> <ZINC ID of Ligand>


> <Number of Protein Chains in Target (>1 implies a multichain complex)>
1

> <BindingDB Target Chain Sequence>
MGAIGLLWLLPLLLSTAAVGSGMGTGQRAGSPAAGPPLQPREPLSYSRLQRKSLAVDFVVPSLFRVYARDLLLPPSSSELKAGRPEARGSLALDCAPLLRLLGPAPGVSWTAGSPAPAEARTLSRVLKGGSVRKLRRAKQLVLELGEEAILEGCVGPPGEAAVGLLQFNLSELFSWWIRQGEGRLRIRLMPEKKASEVGREGRLSAAIRASQPRLLFQIFGTGHSSLESPTNMPSPSPDYFTWNLTWIMKDSFPFLSHRSRYGLECSFDFPCELEYSPPLHDLRNQSWSWRRIPSEEASQMDLLDGPGAERSKEMPRGSFLLLNTSADSKHTILSPWMRSSSEHCTLAVSVHRHLQPSGRYIAQLLPHNEAAREILLMPTPGKHGWTVLQGRIGRPDNPFRVALEYISSGNRSLSAVDFFALKNCSEGTSPGSKMALQSSFTCWNGTVLQLGQACDFHQDCAQGEDESQMCRKLPVGFYCNFEDGFCGWTQGTLSPHTPQWQVRTLKDARFQDHQDHALLLSTTDVPASESATVTSATFPAPIKSSPCELRMSWLIRGVLRGNVSLVLVENKTGKEQGRMVWHVAAYEGLSLWQWMVLPLLDVSDRFWLQMVAWWGQGSRAIVAFDNISISLDCYLTISGEDKILQNTAPKSRNLFERNPNKELKPGENSPRQTPIFDPTVHWLFTTCGASGPHGPTQAQCNNAYQNSNLSVEVGSEGPLKGIQIWKVPATDTYSISGYGAAGGKGGKNTMMRSHGVSVLGIFNLEKDDMLYILVGQQGEDACPSTNQLIQKVCIGENNVIEEEIRVNRSVHEWAGGGGGGGGATYVFKMKDGVPVPLIIAAGGGGRAYGAKTDTFHPERLENNSSVLGLNGNSGAAGGGGGWNDNTSLLWAGKSLQEGATGGHSCPQAMKKWGWETRGGFGGGGGGCSSGGGGGGYIGGNAASNNDPEMDGEDGVSFISPLGILYTPALKVMEGHGEVNIKHYLNCSHCEVDECHMDPESHKVICFCDHGTVLAEDGVSCIVSPTPEPHLPLSLILSVVTSALVAALVLAFSGIMIVYRRKHQELQAMQMELQSPEYKLSKLRTSTIMTDYNPNYCFAGKTSSISDLKEVPRKNITLIRGLGHGAFGEVYEGQVSGMPNDPSPLQVAVKTLPEVCSEQDELDFLMEALIISKFNHQNIVRCIGVSLQSLPRFILLELMAGGDLKSFLRETRPRPSQPSSLAMLDLLHVARDIACGCQYLEENHFIHRDIAARNCLLTCPGPGRVAKIGDFGMARDIYRASYYRKGGCAMLPVKWMPPEAFMEGIFTSKTDTWSFGVLLWEIFSLGYMPYPSKSNQEVLEFVTSGGRMDPPKNCPGPVYRIMTQCWQHQPEDRPNFAIILERIEYCTQDPDVINTALPIEYGPLVEEEEKVPVRPKDPEGVPPLLVSQQAKREEERSPAAPPPLPTTSSGKAAKKPTAAEISVRVPRGPAVEGGHVNMAFSQSNPPSELHKVHGSRNKPTSLWNPTYGSWFTEKPTKKNNPIAKKEPHDRGNLGLEGSCTVPPNVATGRLPGASLLLEPSSLTANMKEVPLFRLRHFPCGNVNYGYQQQGLPLEAATAPGAGHYEDTILKSKNSMNQPGP

> <PDB ID(s) of Target Chain>
2XB7,2XBA,3AOX,5FTO,5FTQ,6E0R,6EBW,6EDL,6MX8

> <UniProt (SwissProt) Recommended Name of Target Chain>
ALK tyrosine kinase receptor

> <UniProt (SwissProt) Entry Name of Target Chain>
ALK_HUMAN

> <UniProt (SwissProt) Primary ID of Target Chain>
Q9UM73

> <UniProt (SwissProt) Secondary ID(s) of Target Chain>
Q4ZFX9,Q53QQ6,Q53RZ4,Q59FI3,Q9Y4K6

> <UniProt (SwissProt) Alternative ID(s) of Target Chain>


> <UniProt (TrEMBL) Submitted Name of Target Chain>


> <UniProt (TrEMBL) Entry Name of Target Chain>


> <UniProt (TrEMBL) Primary ID of Target Chain>


> <UniProt (TrEMBL) Secondary ID(s) of Target Chain>


> <UniProt (TrEMBL) Alternative ID(s) of Target Chain>


$$$$
00254001.cdx
  Mrv0541 10181809492D          

 36 39  0  0  0  0            999 V2000
   -3.2151    1.8562    0.0000 C   0  0  0  0  0  0  0  0  0  0  0  0
   -3.2151    1.0312    0.0000 C   0  0  0  0  0  0  0  0  0  0  0  0
   -2.5006    0.6187    0.0000 C   0  0  0  0  0  0  0  0  0  0  0  0
   -1.7862    1.0312    0.0000 C   0  0  0  0  0  0  0  0  0  0  0  0
   -1.7862    1.8562    0.0000 C   0  0  0  0  0  0  0  0  0  0  0  0
   -2.5006    2.2687    0.0000 C   0  0  0  0  0  0  0  0  0  0  0  0
   -1.0717    0.6187    0.0000 N   0  0  0  0  0  0  0  0  0  0  0  0
   -0.3572    1.0312    0.0000 C   0  0  0  0  0  0  0  0  0  0  0  0
   -0.3572    1.8562    0.0000 C   0  0  0  0  0  0  0  0  0  0  0  0
   -1.0717    2.2687    0.0000 S   0  0  0  0  0  0  0  0  0  0  0  0
   -1.0717   -0.2063    0.0000 C   0  0  0  0  0  0  0  0  0  0  0  0
    0.3572    2.2687    0.0000 C   0  0  0  0  0  0  0  0  0  0  0  0
   -0.6592    2.9832    0.0000 O   0  0  0  0  0  0  0  0  0  0  0  0
   -1.6551    2.8521    0.0000 O   0  0  0  0  0  0  0  0  0  0  0  0
   -1.7862   -0.6188    0.0000 C   0  0  0  0  0  0  0  0  0  0  0  0
   -1.7862   -1.4438    0.0000 C   0  0  0  0  0  0  0  0  0  0  0  0
   -1.0717   -1.8563    0.0000 N   0  0  0  0  0  0  0  0  0  0  0  0
   -0.3572   -1.4438    0.0000 C   0  0  0  0  0  0  0  0  0  0  0  0
   -0.3572   -0.6188    0.0000 N   0  0  0  0  0  0  0  0  0  0  0  0
   -2.5006   -0.2063    0.0000 Cl  0  0  0  0  0  0  0  0  0  0  0  0
    0.3572   -1.8563    0.0000 N   0  0  0  0  0  0  0  0  0  0  0  0
    1.0717   -1.4438    0.0000 C   0  0  0  0  0  0  0  0  0  0  0  0
    1.7862   -1.8563    0.0000 C   0  0  0  0  0  0  0  0  0  0  0  0
    2.5006   -1.4438    0.0000 C   0  0  0  0  0  0  0  0  0  0  0  0
    2.5006   -0.6188    0.0000 C   0  0  0  0  0  0  0  0  0  0  0  0
    1.7862   -0.2063    0.0000 C   0  0  0  0  0  0  0  0  0  0  0  0
    1.0717   -0.6188    0.0000 C   0  0  0  0  0  0  0  0  0  0  0  0
    1.7862   -2.6813    0.0000 O   0  0  0  0  0  0  0  0  0  0  0  0
    2.5006   -3.0938    0.0000 C   0  0  0  0  0  0  0  0  0  0  0  0
    3.2151   -0.2063    0.0000 C   0  0  0  0  0  0  0  0  0  0  0  0
    3.2151    0.6188    0.0000 C   0  0  0  0  0  0  0  0  0  0  0  0
    2.5006    1.0313    0.0000 N   0  0  0  0  0  0  0  0  0  0  0  0
    1.7862    0.6188    0.0000 C   0  0  0  0  0  0  0  0  0  0  0  0
    2.5006    1.8563    0.0000 C   0  0  0  0  0  0  0  0  0  0  0  0
    3.2151    2.2688    0.0000 C   0  0  0  0  0  0  0  0  0  0  0  0
    3.2151    3.0938    0.0000 O   0  0  0  0  0  0  0  0  0  0  0  0
  1  2  4  0  0  0  0
  2  3  4  0  0  0  0
  3  4  4  0  0  0  0
  4  5  4  0  0  0  0
  5  6  4  0  0  0  0
  6  1  4  0  0  0  0
  4  7  1  0  0  0  0
  8  9  1  0  0  0  0
  9 10  1  0  0  0  0
 10  5  1  0  0  0  0
  7 11  1  0  0  0  0
  9 12  1  0  0  0  0
 10 13  2  0  0  0  0
 10 14  2  0  0  0  0
 11 15  4  0  0  0  0
 15 16  4  0  0  0  0
 16 17  4  0  0  0  0
 17 18  4  0  0  0  0
 18 19  4  0  0  0  0
 19 11  4  0  0  0  0
 15 20  1  0  0  0  0
 18 21  1  0  0  0  0
 21 22  1  0  0  0  0
 22 23  4  0  0  0  0
 23 24  4  0  0  0  0
 24 25  4  0  0  0  0
 25 26  4  0  0  0  0
 26 27  4  0  0  0  0
 27 22  4  0  0  0  0
 23 28  1  0  0  0  0
 28 29  1  0  0  0  0
 25 30  1  0  0  0  0
 30 31  1  0  0  0  0
 31 32  1  0  0  0  0
 32 33  1  0  0  0  0
 33 26  1  0  0  0  0
 32 34  1  0  0  0  0
 34 35  1  0  0  0  0
 35 36  1  0  0  0  0
M  END
> <From>
www.bindingDB.org

> <BindingDB Reactant_set_id>
490430

> <Ligand InChI>
InChI=1S/C25H30ClN5O4S/c1-16(2)36(33,34)23-7-5-4-6-20(23)28-24-19(26)14-27-25(30-24)29-21-12-18-15-31(10-11-32)9-8-17(18)13-22(21)35-3/h4-7,12-14,16,32H,8-11,15H2,1-3H3,(H2,27,28,29,30)

> <Ligand InChI Key>
PULWXBIHYFQMPQ-UHFFFAOYSA-N

> <BindingDB MonomerID>
243406

> <BindingDB Ligand Name>
2-(7-(5-chloro-4-(2-(isopropylsulfonyl)phenylamino)pyrimidin-2-yl)amino)-6-methoxy-3,4-dihydroisoquinolin-2(1H)-yl)-ethane-1-ol::US10053458, 36

> <Target Name Assigned by Curator or DataSource>
ALK tyrosine kinase receptor

> <Target Source Organism According to Curator or DataSource>
Homo sapiens

> <Ki (nM)>


> <IC50 (nM)>
<10.00

> <Kd (nM)>


> <EC50 (nM)>


> <kon (M-1-s-1)>


> <koff (s-1)>


> <pH>


> <Temp C>
25.00

> <Curation/DataSource>
US Patent

> <Article DOI>


> <PMID>


> <PubChem AID>


> <Patent Number>
US10053458

> <Authors>
Yun, CS; Kim, HR; Cho, SY; Jung, HJ; Lee, K; Chae, CH; Lee, CO; Park, CH; Kim, P; Hwang, JY; Ha, JD; Ahn, SJ

> <Institution>
KOREA RESEARCH INSTITUTE OF CHEMICAL TECHNOLOGY

> <Link to Ligand in BindingDB>
http://www.bindingdb.org/bind/chemsearch/marvin/MolStructure.jsp?monomerid=243406

> <Link to Ligand-Target Pair in BindingDB>
http://www.bindingdb.org/jsp/dbsearch/PrimarySearch_ki.jsp?energyterm=kJ/mole&tag=pol&polymerid=5809&target=ALK+tyrosine+kinase+receptor&column=ki&startPg=0&Increment=50&submit=Search

> <Link to Ligand-Target Pair in BindingDB>
http://www.bindingdb.org/jsp/dbsearch/PrimarySearch_ki.jsp?energyterm=kJ/mole&tag=r21&monomerid=243406&enzyme=ALK+tyrosine+kinase+receptor&column=ki&startPg=0&Increment=50&submit=Search

> <Ligand HET ID in PDB>


> <PDB ID(s) for Ligand-Target Complex>


> <PubChem CID>
129147987

> <PubChem SID>
376221788

> <ChEBI ID of Ligand>


> <ChEMBL ID of Ligand>


> <DrugBank ID of Ligand>


> <IUPHAR_GRAC ID of Ligand>


> <KEGG ID of Ligand>


> <ZINC ID of Ligand>


> <Number of Protein Chains in Target (>1 implies a multichain complex)>
1

> <BindingDB Target Chain Sequence>
MGAIGLLWLLPLLLSTAAVGSGMGTGQRAGSPAAGPPLQPREPLSYSRLQRKSLAVDFVVPSLFRVYARDLLLPPSSSELKAGRPEARGSLALDCAPLLRLLGPAPGVSWTAGSPAPAEARTLSRVLKGGSVRKLRRAKQLVLELGEEAILEGCVGPPGEAAVGLLQFNLSELFSWWIRQGEGRLRIRLMPEKKASEVGREGRLSAAIRASQPRLLFQIFGTGHSSLESPTNMPSPSPDYFTWNLTWIMKDSFPFLSHRSRYGLECSFDFPCELEYSPPLHDLRNQSWSWRRIPSEEASQMDLLDGPGAERSKEMPRGSFLLLNTSADSKHTILSPWMRSSSEHCTLAVSVHRHLQPSGRYIAQLLPHNEAAREILLMPTPGKHGWTVLQGRIGRPDNPFRVALEYISSGNRSLSAVDFFALKNCSEGTSPGSKMALQSSFTCWNGTVLQLGQACDFHQDCAQGEDESQMCRKLPVGFYCNFEDGFCGWTQGTLSPHTPQWQVRTLKDARFQDHQDHALLLSTTDVPASESATVTSATFPAPIKSSPCELRMSWLIRGVLRGNVSLVLVENKTGKEQGRMVWHVAAYEGLSLWQWMVLPLLDVSDRFWLQMVAWWGQGSRAIVAFDNISISLDCYLTISGEDKILQNTAPKSRNLFERNPNKELKPGENSPRQTPIFDPTVHWLFTTCGASGPHGPTQAQCNNAYQNSNLSVEVGSEGPLKGIQIWKVPATDTYSISGYGAAGGKGGKNTMMRSHGVSVLGIFNLEKDDMLYILVGQQGEDACPSTNQLIQKVCIGENNVIEEEIRVNRSVHEWAGGGGGGGGATYVFKMKDGVPVPLIIAAGGGGRAYGAKTDTFHPERLENNSSVLGLNGNSGAAGGGGGWNDNTSLLWAGKSLQEGATGGHSCPQAMKKWGWETRGGFGGGGGGCSSGGGGGGYIGGNAASNNDPEMDGEDGVSFISPLGILYTPALKVMEGHGEVNIKHYLNCSHCEVDECHMDPESHKVICFCDHGTVLAEDGVSCIVSPTPEPHLPLSLILSVVTSALVAALVLAFSGIMIVYRRKHQELQAMQMELQSPEYKLSKLRTSTIMTDYNPNYCFAGKTSSISDLKEVPRKNITLIRGLGHGAFGEVYEGQVSGMPNDPSPLQVAVKTLPEVCSEQDELDFLMEALIISKFNHQNIVRCIGVSLQSLPRFILLELMAGGDLKSFLRETRPRPSQPSSLAMLDLLHVARDIACGCQYLEENHFIHRDIAARNCLLTCPGPGRVAKIGDFGMARDIYRASYYRKGGCAMLPVKWMPPEAFMEGIFTSKTDTWSFGVLLWEIFSLGYMPYPSKSNQEVLEFVTSGGRMDPPKNCPGPVYRIMTQCWQHQPEDRPNFAIILERIEYCTQDPDVINTALPIEYGPLVEEEEKVPVRPKDPEGVPPLLVSQQAKREEERSPAAPPPLPTTSSGKAAKKPTAAEISVRVPRGPAVEGGHVNMAFSQSNPPSELHKVHGSRNKPTSLWNPTYGSWFTEKPTKKNNPIAKKEPHDRGNLGLEGSCTVPPNVATGRLPGASLLLEPSSLTANMKEVPLFRLRHFPCGNVNYGYQQQGLPLEAATAPGAGHYEDTILKSKNSMNQPGP

> <PDB ID(s) of Target Chain>
2XB7,2XBA,3AOX,5FTO,5FTQ,6E0R,6EBW,6EDL,6MX8

> <UniProt (SwissProt) Recommended Name of Target Chain>
ALK tyrosine kinase receptor

> <UniProt (SwissProt) Entry Name of Target Chain>
ALK_HUMAN

> <UniProt (SwissProt) Primary ID of Target Chain>
Q9UM73

> <UniProt (SwissProt) Secondary ID(s) of Target Chain>
Q4ZFX9,Q53QQ6,Q53RZ4,Q59FI3,Q9Y4K6

> <UniProt (SwissProt) Alternative ID(s) of Target Chain>


> <UniProt (TrEMBL) Submitted Name of Target Chain>


> <UniProt (TrEMBL) Entry Name of Target Chain>


> <UniProt (TrEMBL) Primary ID of Target Chain>


> <UniProt (TrEMBL) Secondary ID(s) of Target Chain>


> <UniProt (TrEMBL) Alternative ID(s) of Target Chain>


$$$$
00259001.cdx
  Mrv0541 10181809492D          

 36 39  0  0  0  0            999 V2000
   -3.2151    1.9115    0.0000 C   0  0  0  0  0  0  0  0  0  0  0  0
   -3.2151    1.0865    0.0000 C   0  0  0  0  0  0  0  0  0  0  0  0
   -2.5006    0.6740    0.0000 C   0  0  0  0  0  0  0  0  0  0  0  0
   -1.7862    1.0865    0.0000 C   0  0  0  0  0  0  0  0  0  0  0  0
   -1.7862    1.9115    0.0000 C   0  0  0  0  0  0  0  0  0  0  0  0
   -2.5006    2.3240    0.0000 C   0  0  0  0  0  0  0  0  0  0  0  0
   -1.0717    0.6740    0.0000 N   0  0  0  0  0  0  0  0  0  0  0  0
   -0.3572    1.0865    0.0000 C   0  0  0  0  0  0  0  0  0  0  0  0
   -0.3572    1.9115    0.0000 C   0  0  0  0  0  0  0  0  0  0  0  0
   -1.0717    2.3240    0.0000 S   0  0  0  0  0  0  0  0  0  0  0  0
   -1.0717   -0.1510    0.0000 C   0  0  0  0  0  0  0  0  0  0  0  0
    0.3572    2.3240    0.0000 C   0  0  0  0  0  0  0  0  0  0  0  0
   -0.6592    3.0385    0.0000 O   0  0  0  0  0  0  0  0  0  0  0  0
   -1.6551    2.9074    0.0000 O   0  0  0  0  0  0  0  0  0  0  0  0
   -1.7862   -0.5635    0.0000 C   0  0  0  0  0  0  0  0  0  0  0  0
   -1.7862   -1.3885    0.0000 C   0  0  0  0  0  0  0  0  0  0  0  0
   -1.0717   -1.8010    0.0000 N   0  0  0  0  0  0  0  0  0  0  0  0
   -0.3572   -1.3885    0.0000 C   0  0  0  0  0  0  0  0  0  0  0  0
   -0.3572   -0.5635    0.0000 N   0  0  0  0  0  0  0  0  0  0  0  0
   -2.5006   -0.1510    0.0000 Cl  0  0  0  0  0  0  0  0  0  0  0  0
    0.3572   -1.8010    0.0000 N   0  0  0  0  0  0  0  0  0  0  0  0
    1.0717   -1.3885    0.0000 C   0  0  0  0  0  0  0  0  0  0  0  0
    1.7862   -1.8010    0.0000 C   0  0  0  0  0  0  0  0  0  0  0  0
    2.5006   -1.3885    0.0000 C   0  0  0  0  0  0  0  0  0  0  0  0
    2.5006   -0.5635    0.0000 C   0  0  0  0  0  0  0  0  0  0  0  0
    1.7862   -0.1510    0.0000 C   0  0  0  0  0  0  0  0  0  0  0  0
    1.0717   -0.5635    0.0000 C   0  0  0  0  0  0  0  0  0  0  0  0
    1.7862   -2.6260    0.0000 O   0  0  0  0  0  0  0  0  0  0  0  0
    2.5006   -3.0385    0.0000 C   0  0  0  0  0  0  0  0  0  0  0  0
    3.2151   -0.1510    0.0000 C   0  0  0  0  0  0  0  0  0  0  0  0
    3.2151    0.6740    0.0000 C   0  0  0  0  0  0  0  0  0  0  0  0
    2.5006    1.0865    0.0000 N   0  0  0  0  0  0  0  0  0  0  0  0
    1.7862    0.6740    0.0000 C   0  0  0  0  0  0  0  0  0  0  0  0
    2.5006    1.9115    0.0000 C   0  0  0  0  0  0  0  0  0  0  0  0
    1.7862    2.3240    0.0000 O   0  0  0  0  0  0  0  0  0  0  0  0
    3.2151    2.3240    0.0000 C   0  0  0  0  0  0  0  0  0  0  0  0
  1  2  4  0  0  0  0
  2  3  4  0  0  0  0
  3  4  4  0  0  0  0
  4  5  4  0  0  0  0
  5  6  4  0  0  0  0
  6  1  4  0  0  0  0
  4  7  1  0  0  0  0
  8  9  1  0  0  0  0
  9 10  1  0  0  0  0
 10  5  1  0  0  0  0
  7 11  1  0  0  0  0
  9 12  1  0  0  0  0
 10 13  2  0  0  0  0
 10 14  2  0  0  0  0
 11 15  4  0  0  0  0
 15 16  4  0  0  0  0
 16 17  4  0  0  0  0
 17 18  4  0  0  0  0
 18 19  4  0  0  0  0
 19 11  4  0  0  0  0
 15 20  1  0  0  0  0
 18 21  1  0  0  0  0
 21 22  1  0  0  0  0
 22 23  4  0  0  0  0
 23 24  4  0  0  0  0
 24 25  4  0  0  0  0
 25 26  4  0  0  0  0
 26 27  4  0  0  0  0
 27 22  4  0  0  0  0
 23 28  1  0  0  0  0
 28 29  1  0  0  0  0
 25 30  1  0  0  0  0
 30 31  1  0  0  0  0
 31 32  1  0  0  0  0
 32 33  1  0  0  0  0
 33 26  1  0  0  0  0
 32 34  1  0  0  0  0
 34 35  2  0  0  0  0
 34 36  1  0  0  0  0
M  END
> <From>
www.bindingDB.org

> <BindingDB Reactant_set_id>
490432

> <Ligand InChI>
InChI=1S/C25H28ClN5O4S/c1-15(2)36(33,34)23-8-6-5-7-20(23)28-24-19(26)13-27-25(30-24)29-21-11-18-14-31(16(3)32)10-9-17(18)12-22(21)35-4/h5-8,11-13,15H,9-10,14H2,1-4H3,(H2,27,28,29,30)

> <Ligand InChI Key>
PJOYTXHUVKUNJM-UHFFFAOYSA-N

> <BindingDB MonomerID>
243407

> <BindingDB Ligand Name>
1-(7-(5-chloro-4-(2-(isopropylsulfonyl)phenylamino)pyrimidin-2-yl)amino)-6-methoxy-3,4-dihydroisoquinolin-2(1H)-yl)ethane-1-one::US10053458, 37

> <Target Name Assigned by Curator or DataSource>
ALK tyrosine kinase receptor

> <Target Source Organism According to Curator or DataSource>
Homo sapiens

> <Ki (nM)>


> <IC50 (nM)>
<10.00

> <Kd (nM)>


> <EC50 (nM)>


> <kon (M-1-s-1)>


> <koff (s-1)>


> <pH>


> <Temp C>
25.00

> <Curation/DataSource>
US Patent

> <Article DOI>


> <PMID>


> <PubChem AID>


> <Patent Number>
US10053458

> <Authors>
Yun, CS; Kim, HR; Cho, SY; Jung, HJ; Lee, K; Chae, CH; Lee, CO; Park, CH; Kim, P; Hwang, JY; Ha, JD; Ahn, SJ

> <Institution>
KOREA RESEARCH INSTITUTE OF CHEMICAL TECHNOLOGY

> <Link to Ligand in BindingDB>
http://www.bindingdb.org/bind/chemsearch/marvin/MolStructure.jsp?monomerid=243407

> <Link to Ligand-Target Pair in BindingDB>
http://www.bindingdb.org/jsp/dbsearch/PrimarySearch_ki.jsp?energyterm=kJ/mole&tag=pol&polymerid=5809&target=ALK+tyrosine+kinase+receptor&column=ki&startPg=0&Increment=50&submit=Search

> <Link to Ligand-Target Pair in BindingDB>
http://www.bindingdb.org/jsp/dbsearch/PrimarySearch_ki.jsp?energyterm=kJ/mole&tag=r21&monomerid=243407&enzyme=ALK+tyrosine+kinase+receptor&column=ki&startPg=0&Increment=50&submit=Search

> <Ligand HET ID in PDB>


> <PDB ID(s) for Ligand-Target Complex>


> <PubChem CID>
129147986

> <PubChem SID>
376221789

> <ChEBI ID of Ligand>


> <ChEMBL ID of Ligand>


> <DrugBank ID of Ligand>


> <IUPHAR_GRAC ID of Ligand>


> <KEGG ID of Ligand>


> <ZINC ID of Ligand>


> <Number of Protein Chains in Target (>1 implies a multichain complex)>
1

> <BindingDB Target Chain Sequence>
MGAIGLLWLLPLLLSTAAVGSGMGTGQRAGSPAAGPPLQPREPLSYSRLQRKSLAVDFVVPSLFRVYARDLLLPPSSSELKAGRPEARGSLALDCAPLLRLLGPAPGVSWTAGSPAPAEARTLSRVLKGGSVRKLRRAKQLVLELGEEAILEGCVGPPGEAAVGLLQFNLSELFSWWIRQGEGRLRIRLMPEKKASEVGREGRLSAAIRASQPRLLFQIFGTGHSSLESPTNMPSPSPDYFTWNLTWIMKDSFPFLSHRSRYGLECSFDFPCELEYSPPLHDLRNQSWSWRRIPSEEASQMDLLDGPGAERSKEMPRGSFLLLNTSADSKHTILSPWMRSSSEHCTLAVSVHRHLQPSGRYIAQLLPHNEAAREILLMPTPGKHGWTVLQGRIGRPDNPFRVALEYISSGNRSLSAVDFFALKNCSEGTSPGSKMALQSSFTCWNGTVLQLGQACDFHQDCAQGEDESQMCRKLPVGFYCNFEDGFCGWTQGTLSPHTPQWQVRTLKDARFQDHQDHALLLSTTDVPASESATVTSATFPAPIKSSPCELRMSWLIRGVLRGNVSLVLVENKTGKEQGRMVWHVAAYEGLSLWQWMVLPLLDVSDRFWLQMVAWWGQGSRAIVAFDNISISLDCYLTISGEDKILQNTAPKSRNLFERNPNKELKPGENSPRQTPIFDPTVHWLFTTCGASGPHGPTQAQCNNAYQNSNLSVEVGSEGPLKGIQIWKVPATDTYSISGYGAAGGKGGKNTMMRSHGVSVLGIFNLEKDDMLYILVGQQGEDACPSTNQLIQKVCIGENNVIEEEIRVNRSVHEWAGGGGGGGGATYVFKMKDGVPVPLIIAAGGGGRAYGAKTDTFHPERLENNSSVLGLNGNSGAAGGGGGWNDNTSLLWAGKSLQEGATGGHSCPQAMKKWGWETRGGFGGGGGGCSSGGGGGGYIGGNAASNNDPEMDGEDGVSFISPLGILYTPALKVMEGHGEVNIKHYLNCSHCEVDECHMDPESHKVICFCDHGTVLAEDGVSCIVSPTPEPHLPLSLILSVVTSALVAALVLAFSGIMIVYRRKHQELQAMQMELQSPEYKLSKLRTSTIMTDYNPNYCFAGKTSSISDLKEVPRKNITLIRGLGHGAFGEVYEGQVSGMPNDPSPLQVAVKTLPEVCSEQDELDFLMEALIISKFNHQNIVRCIGVSLQSLPRFILLELMAGGDLKSFLRETRPRPSQPSSLAMLDLLHVARDIACGCQYLEENHFIHRDIAARNCLLTCPGPGRVAKIGDFGMARDIYRASYYRKGGCAMLPVKWMPPEAFMEGIFTSKTDTWSFGVLLWEIFSLGYMPYPSKSNQEVLEFVTSGGRMDPPKNCPGPVYRIMTQCWQHQPEDRPNFAIILERIEYCTQDPDVINTALPIEYGPLVEEEEKVPVRPKDPEGVPPLLVSQQAKREEERSPAAPPPLPTTSSGKAAKKPTAAEISVRVPRGPAVEGGHVNMAFSQSNPPSELHKVHGSRNKPTSLWNPTYGSWFTEKPTKKNNPIAKKEPHDRGNLGLEGSCTVPPNVATGRLPGASLLLEPSSLTANMKEVPLFRLRHFPCGNVNYGYQQQGLPLEAATAPGAGHYEDTILKSKNSMNQPGP

> <PDB ID(s) of Target Chain>
2XB7,2XBA,3AOX,5FTO,5FTQ,6E0R,6EBW,6EDL,6MX8

> <UniProt (SwissProt) Recommended Name of Target Chain>
ALK tyrosine kinase receptor

> <UniProt (SwissProt) Entry Name of Target Chain>
ALK_HUMAN

> <UniProt (SwissProt) Primary ID of Target Chain>
Q9UM73

> <UniProt (SwissProt) Secondary ID(s) of Target Chain>
Q4ZFX9,Q53QQ6,Q53RZ4,Q59FI3,Q9Y4K6

> <UniProt (SwissProt) Alternative ID(s) of Target Chain>


> <UniProt (TrEMBL) Submitted Name of Target Chain>


> <UniProt (TrEMBL) Entry Name of Target Chain>


> <UniProt (TrEMBL) Primary ID of Target Chain>


> <UniProt (TrEMBL) Secondary ID(s) of Target Chain>


> <UniProt (TrEMBL) Alternative ID(s) of Target Chain>


$$$$
00260001.cdx
  Mrv0541 10181809492D          

 38 41  0  0  0  0            999 V2000
   -3.9296    1.9115    0.0000 C   0  0  0  0  0  0  0  0  0  0  0  0
   -3.9296    1.0865    0.0000 C   0  0  0  0  0  0  0  0  0  0  0  0
   -3.2151    0.6740    0.0000 C   0  0  0  0  0  0  0  0  0  0  0  0
   -2.5006    1.0865    0.0000 C   0  0  0  0  0  0  0  0  0  0  0  0
   -2.5006    1.9115    0.0000 C   0  0  0  0  0  0  0  0  0  0  0  0
   -3.2151    2.3240    0.0000 C   0  0  0  0  0  0  0  0  0  0  0  0
   -1.7862    0.6740    0.0000 N   0  0  0  0  0  0  0  0  0  0  0  0
   -1.0717    1.0865    0.0000 C   0  0  0  0  0  0  0  0  0  0  0  0
   -1.0717    1.9115    0.0000 C   0  0  0  0  0  0  0  0  0  0  0  0
   -1.7862    2.3240    0.0000 S   0  0  0  0  0  0  0  0  0  0  0  0
   -1.7862   -0.1510    0.0000 C   0  0  0  0  0  0  0  0  0  0  0  0
   -0.3572    2.3240    0.0000 C   0  0  0  0  0  0  0  0  0  0  0  0
   -1.3737    3.0385    0.0000 O   0  0  0  0  0  0  0  0  0  0  0  0
   -2.3695    2.9074    0.0000 O   0  0  0  0  0  0  0  0  0  0  0  0
   -2.5006   -0.5635    0.0000 C   0  0  0  0  0  0  0  0  0  0  0  0
   -2.5006   -1.3885    0.0000 C   0  0  0  0  0  0  0  0  0  0  0  0
   -1.7862   -1.8010    0.0000 N   0  0  0  0  0  0  0  0  0  0  0  0
   -1.0717   -1.3885    0.0000 C   0  0  0  0  0  0  0  0  0  0  0  0
   -1.0717   -0.5635    0.0000 N   0  0  0  0  0  0  0  0  0  0  0  0
   -3.2151   -0.1510    0.0000 Cl  0  0  0  0  0  0  0  0  0  0  0  0
   -0.3572   -1.8010    0.0000 N   0  0  0  0  0  0  0  0  0  0  0  0
    0.3572   -1.3885    0.0000 C   0  0  0  0  0  0  0  0  0  0  0  0
    1.0717   -1.8010    0.0000 C   0  0  0  0  0  0  0  0  0  0  0  0
    1.7862   -1.3885    0.0000 C   0  0  0  0  0  0  0  0  0  0  0  0
    1.7862   -0.5635    0.0000 C   0  0  0  0  0  0  0  0  0  0  0  0
    1.0717   -0.1510    0.0000 C   0  0  0  0  0  0  0  0  0  0  0  0
    0.3572   -0.5635    0.0000 C   0  0  0  0  0  0  0  0  0  0  0  0
    1.0717   -2.6260    0.0000 O   0  0  0  0  0  0  0  0  0  0  0  0
    1.7862   -3.0385    0.0000 C   0  0  0  0  0  0  0  0  0  0  0  0
    2.5006   -0.1510    0.0000 C   0  0  0  0  0  0  0  0  0  0  0  0
    2.5006    0.6740    0.0000 C   0  0  0  0  0  0  0  0  0  0  0  0
    1.7862    1.0865    0.0000 N   0  0  0  0  0  0  0  0  0  0  0  0
    1.0717    0.6740    0.0000 C   0  0  0  0  0  0  0  0  0  0  0  0
    1.7862    1.9115    0.0000 C   0  0  0  0  0  0  0  0  0  0  0  0
    1.0717    2.3240    0.0000 O   0  0  0  0  0  0  0  0  0  0  0  0
    2.5006    2.3240    0.0000 N   0  0  0  0  0  0  0  0  0  0  0  0
    3.2151    1.9115    0.0000 C   0  0  0  0  0  0  0  0  0  0  0  0
    3.9296    2.3240    0.0000 C   0  0  0  0  0  0  0  0  0  0  0  0
  1  2  4  0  0  0  0
  2  3  4  0  0  0  0
  3  4  4  0  0  0  0
  4  5  4  0  0  0  0
  5  6  4  0  0  0  0
  6  1  4  0  0  0  0
  4  7  1  0  0  0  0
  8  9  1  0  0  0  0
  9 10  1  0  0  0  0
 10  5  1  0  0  0  0
  7 11  1  0  0  0  0
  9 12  1  0  0  0  0
 10 13  2  0  0  0  0
 10 14  2  0  0  0  0
 11 15  4  0  0  0  0
 15 16  4  0  0  0  0
 16 17  4  0  0  0  0
 17 18  4  0  0  0  0
 18 19  4  0  0  0  0
 19 11  4  0  0  0  0
 15 20  1  0  0  0  0
 18 21  1  0  0  0  0
 21 22  1  0  0  0  0
 22 23  4  0  0  0  0
 23 24  4  0  0  0  0
 24 25  4  0  0  0  0
 25 26  4  0  0  0  0
 26 27  4  0  0  0  0
 27 22  4  0  0  0  0
 23 28  1  0  0  0  0
 28 29  1  0  0  0  0
 25 30  1  0  0  0  0
 30 31  1  0  0  0  0
 31 32  1  0  0  0  0
 32 33  1  0  0  0  0
 33 26  1  0  0  0  0
 32 34  1  0  0  0  0
 34 35  2  0  0  0  0
 34 36  1  0  0  0  0
 36 37  1  0  0  0  0
 37 38  1  0  0  0  0
M  END
> <From>
www.bindingDB.org

> <BindingDB Reactant_set_id>
490434

> <Ligand InChI>
InChI=1S/C26H31ClN6O4S/c1-5-28-26(34)33-11-10-17-13-22(37-4)21(12-18(17)15-33)31-25-29-14-19(27)24(32-25)30-20-8-6-7-9-23(20)38(35,36)16(2)3/h6-9,12-14,16H,5,10-11,15H2,1-4H3,(H,28,34)(H2,29,30,31,32)

> <Ligand InChI Key>
UCBFFSCNFDWWSG-UHFFFAOYSA-N

> <BindingDB MonomerID>
243422

> <BindingDB Ligand Name>
7-(5-chloro-4-(2-(isopropylsulfonyl)phenylamino)pyrimidin-2-yl)amino)-N-ethyl-6-methoxy-3,4-dihydroisoquinoline-2(1H)-carboxamide::US10053458, 38

> <Target Name Assigned by Curator or DataSource>
ALK tyrosine kinase receptor

> <Target Source Organism According to Curator or DataSource>
Homo sapiens

> <Ki (nM)>


> <IC50 (nM)>
<10.00

> <Kd (nM)>


> <EC50 (nM)>


> <kon (M-1-s-1)>


> <koff (s-1)>


> <pH>


> <Temp C>
25.00

> <Curation/DataSource>
US Patent

> <Article DOI>


> <PMID>


> <PubChem AID>


> <Patent Number>
US10053458

> <Authors>
Yun, CS; Kim, HR; Cho, SY; Jung, HJ; Lee, K; Chae, CH; Lee, CO; Park, CH; Kim, P; Hwang, JY; Ha, JD; Ahn, SJ

> <Institution>
KOREA RESEARCH INSTITUTE OF CHEMICAL TECHNOLOGY

> <Link to Ligand in BindingDB>
http://www.bindingdb.org/bind/chemsearch/marvin/MolStructure.jsp?monomerid=243422

> <Link to Ligand-Target Pair in BindingDB>
http://www.bindingdb.org/jsp/dbsearch/PrimarySearch_ki.jsp?energyterm=kJ/mole&tag=pol&polymerid=5809&target=ALK+tyrosine+kinase+receptor&column=ki&startPg=0&Increment=50&submit=Search

> <Link to Ligand-Target Pair in BindingDB>
http://www.bindingdb.org/jsp/dbsearch/PrimarySearch_ki.jsp?energyterm=kJ/mole&tag=r21&monomerid=243422&enzyme=ALK+tyrosine+kinase+receptor&column=ki&startPg=0&Increment=50&submit=Search

> <Ligand HET ID in PDB>


> <PDB ID(s) for Ligand-Target Complex>


> <PubChem CID>
129148007

> <PubChem SID>
376221802

> <ChEBI ID of Ligand>


> <ChEMBL ID of Ligand>


> <DrugBank ID of Ligand>


> <IUPHAR_GRAC ID of Ligand>


> <KEGG ID of Ligand>


> <ZINC ID of Ligand>


> <Number of Protein Chains in Target (>1 implies a multichain complex)>
1

> <BindingDB Target Chain Sequence>
MGAIGLLWLLPLLLSTAAVGSGMGTGQRAGSPAAGPPLQPREPLSYSRLQRKSLAVDFVVPSLFRVYARDLLLPPSSSELKAGRPEARGSLALDCAPLLRLLGPAPGVSWTAGSPAPAEARTLSRVLKGGSVRKLRRAKQLVLELGEEAILEGCVGPPGEAAVGLLQFNLSELFSWWIRQGEGRLRIRLMPEKKASEVGREGRLSAAIRASQPRLLFQIFGTGHSSLESPTNMPSPSPDYFTWNLTWIMKDSFPFLSHRSRYGLECSFDFPCELEYSPPLHDLRNQSWSWRRIPSEEASQMDLLDGPGAERSKEMPRGSFLLLNTSADSKHTILSPWMRSSSEHCTLAVSVHRHLQPSGRYIAQLLPHNEAAREILLMPTPGKHGWTVLQGRIGRPDNPFRVALEYISSGNRSLSAVDFFALKNCSEGTSPGSKMALQSSFTCWNGTVLQLGQACDFHQDCAQGEDESQMCRKLPVGFYCNFEDGFCGWTQGTLSPHTPQWQVRTLKDARFQDHQDHALLLSTTDVPASESATVTSATFPAPIKSSPCELRMSWLIRGVLRGNVSLVLVENKTGKEQGRMVWHVAAYEGLSLWQWMVLPLLDVSDRFWLQMVAWWGQGSRAIVAFDNISISLDCYLTISGEDKILQNTAPKSRNLFERNPNKELKPGENSPRQTPIFDPTVHWLFTTCGASGPHGPTQAQCNNAYQNSNLSVEVGSEGPLKGIQIWKVPATDTYSISGYGAAGGKGGKNTMMRSHGVSVLGIFNLEKDDMLYILVGQQGEDACPSTNQLIQKVCIGENNVIEEEIRVNRSVHEWAGGGGGGGGATYVFKMKDGVPVPLIIAAGGGGRAYGAKTDTFHPERLENNSSVLGLNGNSGAAGGGGGWNDNTSLLWAGKSLQEGATGGHSCPQAMKKWGWETRGGFGGGGGGCSSGGGGGGYIGGNAASNNDPEMDGEDGVSFISPLGILYTPALKVMEGHGEVNIKHYLNCSHCEVDECHMDPESHKVICFCDHGTVLAEDGVSCIVSPTPEPHLPLSLILSVVTSALVAALVLAFSGIMIVYRRKHQELQAMQMELQSPEYKLSKLRTSTIMTDYNPNYCFAGKTSSISDLKEVPRKNITLIRGLGHGAFGEVYEGQVSGMPNDPSPLQVAVKTLPEVCSEQDELDFLMEALIISKFNHQNIVRCIGVSLQSLPRFILLELMAGGDLKSFLRETRPRPSQPSSLAMLDLLHVARDIACGCQYLEENHFIHRDIAARNCLLTCPGPGRVAKIGDFGMARDIYRASYYRKGGCAMLPVKWMPPEAFMEGIFTSKTDTWSFGVLLWEIFSLGYMPYPSKSNQEVLEFVTSGGRMDPPKNCPGPVYRIMTQCWQHQPEDRPNFAIILERIEYCTQDPDVINTALPIEYGPLVEEEEKVPVRPKDPEGVPPLLVSQQAKREEERSPAAPPPLPTTSSGKAAKKPTAAEISVRVPRGPAVEGGHVNMAFSQSNPPSELHKVHGSRNKPTSLWNPTYGSWFTEKPTKKNNPIAKKEPHDRGNLGLEGSCTVPPNVATGRLPGASLLLEPSSLTANMKEVPLFRLRHFPCGNVNYGYQQQGLPLEAATAPGAGHYEDTILKSKNSMNQPGP

> <PDB ID(s) of Target Chain>
2XB7,2XBA,3AOX,5FTO,5FTQ,6E0R,6EBW,6EDL,6MX8

> <UniProt (SwissProt) Recommended Name of Target Chain>
ALK tyrosine kinase receptor

> <UniProt (SwissProt) Entry Name of Target Chain>
ALK_HUMAN

> <UniProt (SwissProt) Primary ID of Target Chain>
Q9UM73

> <UniProt (SwissProt) Secondary ID(s) of Target Chain>
Q4ZFX9,Q53QQ6,Q53RZ4,Q59FI3,Q9Y4K6

> <UniProt (SwissProt) Alternative ID(s) of Target Chain>


> <UniProt (TrEMBL) Submitted Name of Target Chain>


> <UniProt (TrEMBL) Entry Name of Target Chain>


> <UniProt (TrEMBL) Primary ID of Target Chain>


> <UniProt (TrEMBL) Secondary ID(s) of Target Chain>


> <UniProt (TrEMBL) Alternative ID(s) of Target Chain>


$$$$
00261001.cdx
  Mrv0541 10181809492D          

 37 40  0  0  0  0            999 V2000
   -3.2151    1.8562    0.0000 C   0  0  0  0  0  0  0  0  0  0  0  0
   -3.2151    1.0312    0.0000 C   0  0  0  0  0  0  0  0  0  0  0  0
   -2.5006    0.6187    0.0000 C   0  0  0  0  0  0  0  0  0  0  0  0
   -1.7862    1.0312    0.0000 C   0  0  0  0  0  0  0  0  0  0  0  0
   -1.7862    1.8562    0.0000 C   0  0  0  0  0  0  0  0  0  0  0  0
   -2.5006    2.2687    0.0000 C   0  0  0  0  0  0  0  0  0  0  0  0
   -1.0717    0.6187    0.0000 N   0  0  0  0  0  0  0  0  0  0  0  0
   -0.3572    1.0312    0.0000 C   0  0  0  0  0  0  0  0  0  0  0  0
   -0.3572    1.8562    0.0000 C   0  0  0  0  0  0  0  0  0  0  0  0
   -1.0717    2.2687    0.0000 S   0  0  0  0  0  0  0  0  0  0  0  0
   -1.0717   -0.2063    0.0000 C   0  0  0  0  0  0  0  0  0  0  0  0
    0.3572    2.2687    0.0000 C   0  0  0  0  0  0  0  0  0  0  0  0
   -0.6592    2.9832    0.0000 O   0  0  0  0  0  0  0  0  0  0  0  0
   -1.6551    2.8521    0.0000 O   0  0  0  0  0  0  0  0  0  0  0  0
   -1.7862   -0.6188    0.0000 C   0  0  0  0  0  0  0  0  0  0  0  0
   -1.7862   -1.4438    0.0000 C   0  0  0  0  0  0  0  0  0  0  0  0
   -1.0717   -1.8563    0.0000 N   0  0  0  0  0  0  0  0  0  0  0  0
   -0.3572   -1.4438    0.0000 C   0  0  0  0  0  0  0  0  0  0  0  0
   -0.3572   -0.6188    0.0000 N   0  0  0  0  0  0  0  0  0  0  0  0
   -2.5006   -0.2063    0.0000 Cl  0  0  0  0  0  0  0  0  0  0  0  0
    0.3572   -1.8563    0.0000 N   0  0  0  0  0  0  0  0  0  0  0  0
    1.0717   -1.4438    0.0000 C   0  0  0  0  0  0  0  0  0  0  0  0
    1.7862   -1.8563    0.0000 C   0  0  0  0  0  0  0  0  0  0  0  0
    2.5006   -1.4438    0.0000 C   0  0  0  0  0  0  0  0  0  0  0  0
    2.5006   -0.6188    0.0000 C   0  0  0  0  0  0  0  0  0  0  0  0
    1.7862   -0.2063    0.0000 C   0  0  0  0  0  0  0  0  0  0  0  0
    1.0717   -0.6188    0.0000 C   0  0  0  0  0  0  0  0  0  0  0  0
    1.7862   -2.6813    0.0000 O   0  0  0  0  0  0  0  0  0  0  0  0
    2.5006   -3.0938    0.0000 C   0  0  0  0  0  0  0  0  0  0  0  0
    3.2151   -0.2063    0.0000 C   0  0  0  0  0  0  0  0  0  0  0  0
    3.2151    0.6188    0.0000 C   0  0  0  0  0  0  0  0  0  0  0  0
    2.5006    1.0313    0.0000 N   0  0  0  0  0  0  0  0  0  0  0  0
    1.7862    0.6188    0.0000 C   0  0  0  0  0  0  0  0  0  0  0  0
    2.5006    1.8563    0.0000 C   0  0  0  0  0  0  0  0  0  0  0  0
    1.7862    2.2688    0.0000 O   0  0  0  0  0  0  0  0  0  0  0  0
    3.2151    2.2688    0.0000 C   0  0  0  0  0  0  0  0  0  0  0  0
    3.2151    3.0938    0.0000 O   0  0  0  0  0  0  0  0  0  0  0  0
  1  2  4  0  0  0  0
  2  3  4  0  0  0  0
  3  4  4  0  0  0  0
  4  5  4  0  0  0  0
  5  6  4  0  0  0  0
  6  1  4  0  0  0  0
  4  7  1  0  0  0  0
  8  9  1  0  0  0  0
  9 10  1  0  0  0  0
 10  5  1  0  0  0  0
  7 11  1  0  0  0  0
  9 12  1  0  0  0  0
 10 13  2  0  0  0  0
 10 14  2  0  0  0  0
 11 15  4  0  0  0  0
 15 16  4  0  0  0  0
 16 17  4  0  0  0  0
 17 18  4  0  0  0  0
 18 19  4  0  0  0  0
 19 11  4  0  0  0  0
 15 20  1  0  0  0  0
 18 21  1  0  0  0  0
 21 22  1  0  0  0  0
 22 23  4  0  0  0  0
 23 24  4  0  0  0  0
 24 25  4  0  0  0  0
 25 26  4  0  0  0  0
 26 27  4  0  0  0  0
 27 22  4  0  0  0  0
 23 28  1  0  0  0  0
 28 29  1  0  0  0  0
 25 30  1  0  0  0  0
 30 31  1  0  0  0  0
 31 32  1  0  0  0  0
 32 33  1  0  0  0  0
 33 26  1  0  0  0  0
 32 34  1  0  0  0  0
 34 35  2  0  0  0  0
 34 36  1  0  0  0  0
 36 37  1  0  0  0  0
M  END
> <From>
www.bindingDB.org

> <BindingDB Reactant_set_id>
490436

> <Ligand InChI>
InChI=1S/C25H28ClN5O5S/c1-15(2)37(34,35)22-7-5-4-6-19(22)28-24-18(26)12-27-25(30-24)29-20-10-17-13-31(23(33)14-32)9-8-16(17)11-21(20)36-3/h4-7,10-12,15,32H,8-9,13-14H2,1-3H3,(H2,27,28,29,30)

> <Ligand InChI Key>
XPCGPXOUNZDGSJ-UHFFFAOYSA-N

> <BindingDB MonomerID>
243423

> <BindingDB Ligand Name>
1-(7-(5-chloro-4-(2-(isopropylsulfonyl)phenylamino)pyrimidin-2-yl)amino)-6-methoxy-3,4-dihydroisoquinolin-2(1H)-yl)-2-hydroxyethane-1-one::US10053458, 39

> <Target Name Assigned by Curator or DataSource>
ALK tyrosine kinase receptor

> <Target Source Organism According to Curator or DataSource>
Homo sapiens

> <Ki (nM)>


> <IC50 (nM)>
<10.00

> <Kd (nM)>


> <EC50 (nM)>


> <kon (M-1-s-1)>


> <koff (s-1)>


> <pH>


> <Temp C>
25.00

> <Curation/DataSource>
US Patent

> <Article DOI>


> <PMID>


> <PubChem AID>


> <Patent Number>
US10053458

> <Authors>
Yun, CS; Kim, HR; Cho, SY; Jung, HJ; Lee, K; Chae, CH; Lee, CO; Park, CH; Kim, P; Hwang, JY; Ha, JD; Ahn, SJ

> <Institution>
KOREA RESEARCH INSTITUTE OF CHEMICAL TECHNOLOGY

> <Link to Ligand in BindingDB>
http://www.bindingdb.org/bind/chemsearch/marvin/MolStructure.jsp?monomerid=243423

> <Link to Ligand-Target Pair in BindingDB>
http://www.bindingdb.org/jsp/dbsearch/PrimarySearch_ki.jsp?energyterm=kJ/mole&tag=pol&polymerid=5809&target=ALK+tyrosine+kinase+receptor&column=ki&startPg=0&Increment=50&submit=Search

> <Link to Ligand-Target Pair in BindingDB>
http://www.bindingdb.org/jsp/dbsearch/PrimarySearch_ki.jsp?energyterm=kJ/mole&tag=r21&monomerid=243423&enzyme=ALK+tyrosine+kinase+receptor&column=ki&startPg=0&Increment=50&submit=Search

> <Ligand HET ID in PDB>


> <PDB ID(s) for Ligand-Target Complex>


> <PubChem CID>
129147988

> <PubChem SID>
376221803

> <ChEBI ID of Ligand>


> <ChEMBL ID of Ligand>


> <DrugBank ID of Ligand>


> <IUPHAR_GRAC ID of Ligand>


> <KEGG ID of Ligand>


> <ZINC ID of Ligand>


> <Number of Protein Chains in Target (>1 implies a multichain complex)>
1

> <BindingDB Target Chain Sequence>
MGAIGLLWLLPLLLSTAAVGSGMGTGQRAGSPAAGPPLQPREPLSYSRLQRKSLAVDFVVPSLFRVYARDLLLPPSSSELKAGRPEARGSLALDCAPLLRLLGPAPGVSWTAGSPAPAEARTLSRVLKGGSVRKLRRAKQLVLELGEEAILEGCVGPPGEAAVGLLQFNLSELFSWWIRQGEGRLRIRLMPEKKASEVGREGRLSAAIRASQPRLLFQIFGTGHSSLESPTNMPSPSPDYFTWNLTWIMKDSFPFLSHRSRYGLECSFDFPCELEYSPPLHDLRNQSWSWRRIPSEEASQMDLLDGPGAERSKEMPRGSFLLLNTSADSKHTILSPWMRSSSEHCTLAVSVHRHLQPSGRYIAQLLPHNEAAREILLMPTPGKHGWTVLQGRIGRPDNPFRVALEYISSGNRSLSAVDFFALKNCSEGTSPGSKMALQSSFTCWNGTVLQLGQACDFHQDCAQGEDESQMCRKLPVGFYCNFEDGFCGWTQGTLSPHTPQWQVRTLKDARFQDHQDHALLLSTTDVPASESATVTSATFPAPIKSSPCELRMSWLIRGVLRGNVSLVLVENKTGKEQGRMVWHVAAYEGLSLWQWMVLPLLDVSDRFWLQMVAWWGQGSRAIVAFDNISISLDCYLTISGEDKILQNTAPKSRNLFERNPNKELKPGENSPRQTPIFDPTVHWLFTTCGASGPHGPTQAQCNNAYQNSNLSVEVGSEGPLKGIQIWKVPATDTYSISGYGAAGGKGGKNTMMRSHGVSVLGIFNLEKDDMLYILVGQQGEDACPSTNQLIQKVCIGENNVIEEEIRVNRSVHEWAGGGGGGGGATYVFKMKDGVPVPLIIAAGGGGRAYGAKTDTFHPERLENNSSVLGLNGNSGAAGGGGGWNDNTSLLWAGKSLQEGATGGHSCPQAMKKWGWETRGGFGGGGGGCSSGGGGGGYIGGNAASNNDPEMDGEDGVSFISPLGILYTPALKVMEGHGEVNIKHYLNCSHCEVDECHMDPESHKVICFCDHGTVLAEDGVSCIVSPTPEPHLPLSLILSVVTSALVAALVLAFSGIMIVYRRKHQELQAMQMELQSPEYKLSKLRTSTIMTDYNPNYCFAGKTSSISDLKEVPRKNITLIRGLGHGAFGEVYEGQVSGMPNDPSPLQVAVKTLPEVCSEQDELDFLMEALIISKFNHQNIVRCIGVSLQSLPRFILLELMAGGDLKSFLRETRPRPSQPSSLAMLDLLHVARDIACGCQYLEENHFIHRDIAARNCLLTCPGPGRVAKIGDFGMARDIYRASYYRKGGCAMLPVKWMPPEAFMEGIFTSKTDTWSFGVLLWEIFSLGYMPYPSKSNQEVLEFVTSGGRMDPPKNCPGPVYRIMTQCWQHQPEDRPNFAIILERIEYCTQDPDVINTALPIEYGPLVEEEEKVPVRPKDPEGVPPLLVSQQAKREEERSPAAPPPLPTTSSGKAAKKPTAAEISVRVPRGPAVEGGHVNMAFSQSNPPSELHKVHGSRNKPTSLWNPTYGSWFTEKPTKKNNPIAKKEPHDRGNLGLEGSCTVPPNVATGRLPGASLLLEPSSLTANMKEVPLFRLRHFPCGNVNYGYQQQGLPLEAATAPGAGHYEDTILKSKNSMNQPGP

> <PDB ID(s) of Target Chain>
2XB7,2XBA,3AOX,5FTO,5FTQ,6E0R,6EBW,6EDL,6MX8

> <UniProt (SwissProt) Recommended Name of Target Chain>
ALK tyrosine kinase receptor

> <UniProt (SwissProt) Entry Name of Target Chain>
ALK_HUMAN

> <UniProt (SwissProt) Primary ID of Target Chain>
Q9UM73

> <UniProt (SwissProt) Secondary ID(s) of Target Chain>
Q4ZFX9,Q53QQ6,Q53RZ4,Q59FI3,Q9Y4K6

> <UniProt (SwissProt) Alternative ID(s) of Target Chain>


> <UniProt (TrEMBL) Submitted Name of Target Chain>


> <UniProt (TrEMBL) Entry Name of Target Chain>


> <UniProt (TrEMBL) Primary ID of Target Chain>


> <UniProt (TrEMBL) Secondary ID(s) of Target Chain>


> <UniProt (TrEMBL) Alternative ID(s) of Target Chain>


$$$$
00262001.cdx
  Mrv0541 10181809492D          

 37 40  0  0  0  0            999 V2000
   -3.2151    1.9115    0.0000 C   0  0  0  0  0  0  0  0  0  0  0  0
   -3.2151    1.0865    0.0000 C   0  0  0  0  0  0  0  0  0  0  0  0
   -2.5006    0.6740    0.0000 C   0  0  0  0  0  0  0  0  0  0  0  0
   -1.7862    1.0865    0.0000 C   0  0  0  0  0  0  0  0  0  0  0  0
   -1.7862    1.9115    0.0000 C   0  0  0  0  0  0  0  0  0  0  0  0
   -2.5006    2.3240    0.0000 C   0  0  0  0  0  0  0  0  0  0  0  0
   -1.0717    0.6740    0.0000 N   0  0  0  0  0  0  0  0  0  0  0  0
   -0.3572    1.0865    0.0000 C   0  0  0  0  0  0  0  0  0  0  0  0
   -0.3572    1.9115    0.0000 C   0  0  0  0  0  0  0  0  0  0  0  0
   -1.0717    2.3240    0.0000 S   0  0  0  0  0  0  0  0  0  0  0  0
   -1.0717   -0.1510    0.0000 C   0  0  0  0  0  0  0  0  0  0  0  0
    0.3572    2.3240    0.0000 C   0  0  0  0  0  0  0  0  0  0  0  0
   -0.6592    3.0385    0.0000 O   0  0  0  0  0  0  0  0  0  0  0  0
   -1.6551    2.9074    0.0000 O   0  0  0  0  0  0  0  0  0  0  0  0
   -1.7862   -0.5635    0.0000 C   0  0  0  0  0  0  0  0  0  0  0  0
   -1.7862   -1.3885    0.0000 C   0  0  0  0  0  0  0  0  0  0  0  0
   -1.0717   -1.8010    0.0000 N   0  0  0  0  0  0  0  0  0  0  0  0
   -0.3572   -1.3885    0.0000 C   0  0  0  0  0  0  0  0  0  0  0  0
   -0.3572   -0.5635    0.0000 N   0  0  0  0  0  0  0  0  0  0  0  0
   -2.5006   -0.1510    0.0000 Cl  0  0  0  0  0  0  0  0  0  0  0  0
    0.3572   -1.8010    0.0000 N   0  0  0  0  0  0  0  0  0  0  0  0
    1.0717   -1.3885    0.0000 C   0  0  0  0  0  0  0  0  0  0  0  0
    1.7862   -1.8010    0.0000 C   0  0  0  0  0  0  0  0  0  0  0  0
    2.5006   -1.3885    0.0000 C   0  0  0  0  0  0  0  0  0  0  0  0
    2.5006   -0.5635    0.0000 C   0  0  0  0  0  0  0  0  0  0  0  0
    1.7862   -0.1510    0.0000 C   0  0  0  0  0  0  0  0  0  0  0  0
    1.0717   -0.5635    0.0000 C   0  0  0  0  0  0  0  0  0  0  0  0
    1.7862   -2.6260    0.0000 O   0  0  0  0  0  0  0  0  0  0  0  0
    2.5006   -3.0385    0.0000 C   0  0  0  0  0  0  0  0  0  0  0  0
    3.2151   -0.1510    0.0000 C   0  0  0  0  0  0  0  0  0  0  0  0
    3.2151    0.6740    0.0000 C   0  0  0  0  0  0  0  0  0  0  0  0
    2.5006    1.0865    0.0000 N   0  0  0  0  0  0  0  0  0  0  0  0
    1.7862    0.6740    0.0000 C   0  0  0  0  0  0  0  0  0  0  0  0
    2.5006    1.9115    0.0000 S   0  0  0  0  0  0  0  0  0  0  0  0
    1.6756    1.9115    0.0000 O   0  0  0  0  0  0  0  0  0  0  0  0
    3.2151    2.3240    0.0000 N   0  0  0  0  0  0  0  0  0  0  0  0
    2.0881    2.6260    0.0000 O   0  0  0  0  0  0  0  0  0  0  0  0
  1  2  4  0  0  0  0
  2  3  4  0  0  0  0
  3  4  4  0  0  0  0
  4  5  4  0  0  0  0
  5  6  4  0  0  0  0
  6  1  4  0  0  0  0
  4  7  1  0  0  0  0
  8  9  1  0  0  0  0
  9 10  1  0  0  0  0
 10  5  1  0  0  0  0
  7 11  1  0  0  0  0
  9 12  1  0  0  0  0
 10 13  2  0  0  0  0
 10 14  2  0  0  0  0
 11 15  4  0  0  0  0
 15 16  4  0  0  0  0
 16 17  4  0  0  0  0
 17 18  4  0  0  0  0
 18 19  4  0  0  0  0
 19 11  4  0  0  0  0
 15 20  1  0  0  0  0
 18 21  1  0  0  0  0
 21 22  1  0  0  0  0
 22 23  4  0  0  0  0
 23 24  4  0  0  0  0
 24 25  4  0  0  0  0
 25 26  4  0  0  0  0
 26 27  4  0  0  0  0
 27 22  4  0  0  0  0
 23 28  1  0  0  0  0
 28 29  1  0  0  0  0
 25 30  1  0  0  0  0
 30 31  1  0  0  0  0
 31 32  1  0  0  0  0
 32 33  1  0  0  0  0
 33 26  1  0  0  0  0
 32 34  1  0  0  0  0
 34 35  2  0  0  0  0
 34 36  1  0  0  0  0
 34 37  2  0  0  0  0
M  END
> <From>
www.bindingDB.org

> <BindingDB Reactant_set_id>
490438

> <Ligand InChI>
InChI=1S/C23H27ClN6O5S2/c1-14(2)36(31,32)21-7-5-4-6-18(21)27-22-17(24)12-26-23(29-22)28-19-10-16-13-30(37(25,33)34)9-8-15(16)11-20(19)35-3/h4-7,10-12,14H,8-9,13H2,1-3H3,(H2,25,33,34)(H2,26,27,28,29)

> <Ligand InChI Key>
GUVYVRSFYHAUGS-UHFFFAOYSA-N

> <BindingDB MonomerID>
243424

> <BindingDB Ligand Name>
7-(5-chloro-4-(2-(isopropylsulfonyl)phenylamino)pyrimidin-2-yl)amino)-6-methoxy-3,4-dihydroisoquinoline-2(1H)-sulfonamide::US10053458, 40

> <Target Name Assigned by Curator or DataSource>
ALK tyrosine kinase receptor

> <Target Source Organism According to Curator or DataSource>
Homo sapiens

> <Ki (nM)>


> <IC50 (nM)>
<10.00

> <Kd (nM)>


> <EC50 (nM)>


> <kon (M-1-s-1)>


> <koff (s-1)>


> <pH>


> <Temp C>
25.00

> <Curation/DataSource>
US Patent

> <Article DOI>


> <PMID>


> <PubChem AID>


> <Patent Number>
US10053458

> <Authors>
Yun, CS; Kim, HR; Cho, SY; Jung, HJ; Lee, K; Chae, CH; Lee, CO; Park, CH; Kim, P; Hwang, JY; Ha, JD; Ahn, SJ

> <Institution>
KOREA RESEARCH INSTITUTE OF CHEMICAL TECHNOLOGY

> <Link to Ligand in BindingDB>
http://www.bindingdb.org/bind/chemsearch/marvin/MolStructure.jsp?monomerid=243424

> <Link to Ligand-Target Pair in BindingDB>
http://www.bindingdb.org/jsp/dbsearch/PrimarySearch_ki.jsp?energyterm=kJ/mole&tag=pol&polymerid=5809&target=ALK+tyrosine+kinase+receptor&column=ki&startPg=0&Increment=50&submit=Search

> <Link to Ligand-Target Pair in BindingDB>
http://www.bindingdb.org/jsp/dbsearch/PrimarySearch_ki.jsp?energyterm=kJ/mole&tag=r21&monomerid=243424&enzyme=ALK+tyrosine+kinase+receptor&column=ki&startPg=0&Increment=50&submit=Search

> <Ligand HET ID in PDB>


> <PDB ID(s) for Ligand-Target Complex>


> <PubChem CID>
129147989

> <PubChem SID>
376221804

> <ChEBI ID of Ligand>


> <ChEMBL ID of Ligand>


> <DrugBank ID of Ligand>


> <IUPHAR_GRAC ID of Ligand>


> <KEGG ID of Ligand>


> <ZINC ID of Ligand>


> <Number of Protein Chains in Target (>1 implies a multichain complex)>
1

> <BindingDB Target Chain Sequence>
MGAIGLLWLLPLLLSTAAVGSGMGTGQRAGSPAAGPPLQPREPLSYSRLQRKSLAVDFVVPSLFRVYARDLLLPPSSSELKAGRPEARGSLALDCAPLLRLLGPAPGVSWTAGSPAPAEARTLSRVLKGGSVRKLRRAKQLVLELGEEAILEGCVGPPGEAAVGLLQFNLSELFSWWIRQGEGRLRIRLMPEKKASEVGREGRLSAAIRASQPRLLFQIFGTGHSSLESPTNMPSPSPDYFTWNLTWIMKDSFPFLSHRSRYGLECSFDFPCELEYSPPLHDLRNQSWSWRRIPSEEASQMDLLDGPGAERSKEMPRGSFLLLNTSADSKHTILSPWMRSSSEHCTLAVSVHRHLQPSGRYIAQLLPHNEAAREILLMPTPGKHGWTVLQGRIGRPDNPFRVALEYISSGNRSLSAVDFFALKNCSEGTSPGSKMALQSSFTCWNGTVLQLGQACDFHQDCAQGEDESQMCRKLPVGFYCNFEDGFCGWTQGTLSPHTPQWQVRTLKDARFQDHQDHALLLSTTDVPASESATVTSATFPAPIKSSPCELRMSWLIRGVLRGNVSLVLVENKTGKEQGRMVWHVAAYEGLSLWQWMVLPLLDVSDRFWLQMVAWWGQGSRAIVAFDNISISLDCYLTISGEDKILQNTAPKSRNLFERNPNKELKPGENSPRQTPIFDPTVHWLFTTCGASGPHGPTQAQCNNAYQNSNLSVEVGSEGPLKGIQIWKVPATDTYSISGYGAAGGKGGKNTMMRSHGVSVLGIFNLEKDDMLYILVGQQGEDACPSTNQLIQKVCIGENNVIEEEIRVNRSVHEWAGGGGGGGGATYVFKMKDGVPVPLIIAAGGGGRAYGAKTDTFHPERLENNSSVLGLNGNSGAAGGGGGWNDNTSLLWAGKSLQEGATGGHSCPQAMKKWGWETRGGFGGGGGGCSSGGGGGGYIGGNAASNNDPEMDGEDGVSFISPLGILYTPALKVMEGHGEVNIKHYLNCSHCEVDECHMDPESHKVICFCDHGTVLAEDGVSCIVSPTPEPHLPLSLILSVVTSALVAALVLAFSGIMIVYRRKHQELQAMQMELQSPEYKLSKLRTSTIMTDYNPNYCFAGKTSSISDLKEVPRKNITLIRGLGHGAFGEVYEGQVSGMPNDPSPLQVAVKTLPEVCSEQDELDFLMEALIISKFNHQNIVRCIGVSLQSLPRFILLELMAGGDLKSFLRETRPRPSQPSSLAMLDLLHVARDIACGCQYLEENHFIHRDIAARNCLLTCPGPGRVAKIGDFGMARDIYRASYYRKGGCAMLPVKWMPPEAFMEGIFTSKTDTWSFGVLLWEIFSLGYMPYPSKSNQEVLEFVTSGGRMDPPKNCPGPVYRIMTQCWQHQPEDRPNFAIILERIEYCTQDPDVINTALPIEYGPLVEEEEKVPVRPKDPEGVPPLLVSQQAKREEERSPAAPPPLPTTSSGKAAKKPTAAEISVRVPRGPAVEGGHVNMAFSQSNPPSELHKVHGSRNKPTSLWNPTYGSWFTEKPTKKNNPIAKKEPHDRGNLGLEGSCTVPPNVATGRLPGASLLLEPSSLTANMKEVPLFRLRHFPCGNVNYGYQQQGLPLEAATAPGAGHYEDTILKSKNSMNQPGP

> <PDB ID(s) of Target Chain>
2XB7,2XBA,3AOX,5FTO,5FTQ,6E0R,6EBW,6EDL,6MX8

> <UniProt (SwissProt) Recommended Name of Target Chain>
ALK tyrosine kinase receptor

> <UniProt (SwissProt) Entry Name of Target Chain>
ALK_HUMAN

> <UniProt (SwissProt) Primary ID of Target Chain>
Q9UM73

> <UniProt (SwissProt) Secondary ID(s) of Target Chain>
Q4ZFX9,Q53QQ6,Q53RZ4,Q59FI3,Q9Y4K6

> <UniProt (SwissProt) Alternative ID(s) of Target Chain>


> <UniProt (TrEMBL) Submitted Name of Target Chain>


> <UniProt (TrEMBL) Entry Name of Target Chain>


> <UniProt (TrEMBL) Primary ID of Target Chain>


> <UniProt (TrEMBL) Secondary ID(s) of Target Chain>


> <UniProt (TrEMBL) Alternative ID(s) of Target Chain>


$$$$
00267001.cdx
  Mrv0541 10181809492D          

 35 38  0  0  0  0            999 V2000
   -3.2151    1.9115    0.0000 C   0  0  0  0  0  0  0  0  0  0  0  0
   -3.2151    1.0865    0.0000 C   0  0  0  0  0  0  0  0  0  0  0  0
   -2.5006    0.6740    0.0000 C   0  0  0  0  0  0  0  0  0  0  0  0
   -1.7862    1.0865    0.0000 C   0  0  0  0  0  0  0  0  0  0  0  0
   -1.7862    1.9115    0.0000 C   0  0  0  0  0  0  0  0  0  0  0  0
   -2.5006    2.3240    0.0000 C   0  0  0  0  0  0  0  0  0  0  0  0
   -1.0717    0.6740    0.0000 N   0  0  0  0  0  0  0  0  0  0  0  0
   -0.3572    1.0865    0.0000 C   0  0  0  0  0  0  0  0  0  0  0  0
   -0.3572    1.9115    0.0000 C   0  0  0  0  0  0  0  0  0  0  0  0
   -1.0717    2.3240    0.0000 S   0  0  0  0  0  0  0  0  0  0  0  0
   -1.0717   -0.1510    0.0000 C   0  0  0  0  0  0  0  0  0  0  0  0
    0.3572    2.3240    0.0000 C   0  0  0  0  0  0  0  0  0  0  0  0
   -0.6592    3.0385    0.0000 O   0  0  0  0  0  0  0  0  0  0  0  0
   -1.6551    2.9074    0.0000 O   0  0  0  0  0  0  0  0  0  0  0  0
   -1.7862   -0.5635    0.0000 C   0  0  0  0  0  0  0  0  0  0  0  0
   -1.7862   -1.3885    0.0000 C   0  0  0  0  0  0  0  0  0  0  0  0
   -1.0717   -1.8010    0.0000 N   0  0  0  0  0  0  0  0  0  0  0  0
   -0.3572   -1.3885    0.0000 C   0  0  0  0  0  0  0  0  0  0  0  0
   -0.3572   -0.5635    0.0000 N   0  0  0  0  0  0  0  0  0  0  0  0
   -2.5006   -0.1510    0.0000 Cl  0  0  0  0  0  0  0  0  0  0  0  0
    0.3572   -1.8010    0.0000 N   0  0  0  0  0  0  0  0  0  0  0  0
    1.0717   -1.3885    0.0000 C   0  0  0  0  0  0  0  0  0  0  0  0
    1.7862   -1.8010    0.0000 C   0  0  0  0  0  0  0  0  0  0  0  0
    2.5006   -1.3885    0.0000 C   0  0  0  0  0  0  0  0  0  0  0  0
    2.5006   -0.5635    0.0000 C   0  0  0  0  0  0  0  0  0  0  0  0
    1.7862   -0.1510    0.0000 C   0  0  0  0  0  0  0  0  0  0  0  0
    1.0717   -0.5635    0.0000 C   0  0  0  0  0  0  0  0  0  0  0  0
    1.7862   -2.6260    0.0000 O   0  0  0  0  0  0  0  0  0  0  0  0
    2.5006   -3.0385    0.0000 C   0  0  0  0  0  0  0  0  0  0  0  0
    3.2151   -0.1510    0.0000 C   0  0  0  0  0  0  0  0  0  0  0  0
    3.2151    0.6740    0.0000 C   0  0  0  0  0  0  0  0  0  0  0  0
    2.5006    1.0865    0.0000 N   0  0  0  0  0  0  0  0  0  0  0  0
    1.7862    0.6740    0.0000 C   0  0  0  0  0  0  0  0  0  0  0  0
    2.5006    1.9115    0.0000 C   0  0  0  0  0  0  0  0  0  0  0  0
    3.2151    2.3240    0.0000 C   0  0  0  0  0  0  0  0  0  0  0  0
  1  2  4  0  0  0  0
  2  3  4  0  0  0  0
  3  4  4  0  0  0  0
  4  5  4  0  0  0  0
  5  6  4  0  0  0  0
  6  1  4  0  0  0  0
  4  7  1  0  0  0  0
  8  9  1  0  0  0  0
  9 10  1  0  0  0  0
 10  5  1  0  0  0  0
  7 11  1  0  0  0  0
  9 12  1  0  0  0  0
 10 13  2  0  0  0  0
 10 14  2  0  0  0  0
 11 15  4  0  0  0  0
 15 16  4  0  0  0  0
 16 17  4  0  0  0  0
 17 18  4  0  0  0  0
 18 19  4  0  0  0  0
 19 11  4  0  0  0  0
 15 20  1  0  0  0  0
 18 21  1  0  0  0  0
 21 22  1  0  0  0  0
 22 23  4  0  0  0  0
 23 24  4  0  0  0  0
 24 25  4  0  0  0  0
 25 26  4  0  0  0  0
 26 27  4  0  0  0  0
 27 22  4  0  0  0  0
 23 28  1  0  0  0  0
 28 29  1  0  0  0  0
 25 30  1  0  0  0  0
 30 31  1  0  0  0  0
 31 32  1  0  0  0  0
 32 33  1  0  0  0  0
 33 26  1  0  0  0  0
 32 34  1  0  0  0  0
 34 35  1  0  0  0  0
M  END
> <From>
www.bindingDB.org

> <BindingDB Reactant_set_id>
490440

> <Ligand InChI>
InChI=1S/C25H30ClN5O3S/c1-5-31-11-10-17-13-22(34-4)21(12-18(17)15-31)29-25-27-14-19(26)24(30-25)28-20-8-6-7-9-23(20)35(32,33)16(2)3/h6-9,12-14,16H,5,10-11,15H2,1-4H3,(H2,27,28,29,30)

> <Ligand InChI Key>
PZTJLNNIRUUCFF-UHFFFAOYSA-N

> <BindingDB MonomerID>
243425

> <BindingDB Ligand Name>
5-chloro-N4-(2-(isopropylsulfonyl)phenyl)-N2-(6-methoxy-2-ethyl-1,2,3,4-tetrahydroisoquinolin-7-yl)pyrimidine-2,4-diamine::US10053458, 41

> <Target Name Assigned by Curator or DataSource>
ALK tyrosine kinase receptor

> <Target Source Organism According to Curator or DataSource>
Homo sapiens

> <Ki (nM)>


> <IC50 (nM)>
 1.000

> <Kd (nM)>


> <EC50 (nM)>


> <kon (M-1-s-1)>


> <koff (s-1)>


> <pH>


> <Temp C>
25.00

> <Curation/DataSource>
US Patent

> <Article DOI>


> <PMID>


> <PubChem AID>


> <Patent Number>
US10053458

> <Authors>
Yun, CS; Kim, HR; Cho, SY; Jung, HJ; Lee, K; Chae, CH; Lee, CO; Park, CH; Kim, P; Hwang, JY; Ha, JD; Ahn, SJ

> <Institution>
KOREA RESEARCH INSTITUTE OF CHEMICAL TECHNOLOGY

> <Link to Ligand in BindingDB>
http://www.bindingdb.org/bind/chemsearch/marvin/MolStructure.jsp?monomerid=243425

> <Link to Ligand-Target Pair in BindingDB>
http://www.bindingdb.org/jsp/dbsearch/PrimarySearch_ki.jsp?energyterm=kJ/mole&tag=pol&polymerid=5809&target=ALK+tyrosine+kinase+receptor&column=ki&startPg=0&Increment=50&submit=Search

> <Link to Ligand-Target Pair in BindingDB>
http://www.bindingdb.org/jsp/dbsearch/PrimarySearch_ki.jsp?energyterm=kJ/mole&tag=r21&monomerid=243425&enzyme=ALK+tyrosine+kinase+receptor&column=ki&startPg=0&Increment=50&submit=Search

> <Ligand HET ID in PDB>


> <PDB ID(s) for Ligand-Target Complex>


> <PubChem CID>
129048509

> <PubChem SID>
376221805

> <ChEBI ID of Ligand>


> <ChEMBL ID of Ligand>


> <DrugBank ID of Ligand>


> <IUPHAR_GRAC ID of Ligand>


> <KEGG ID of Ligand>


> <ZINC ID of Ligand>


> <Number of Protein Chains in Target (>1 implies a multichain complex)>
1

> <BindingDB Target Chain Sequence>
MGAIGLLWLLPLLLSTAAVGSGMGTGQRAGSPAAGPPLQPREPLSYSRLQRKSLAVDFVVPSLFRVYARDLLLPPSSSELKAGRPEARGSLALDCAPLLRLLGPAPGVSWTAGSPAPAEARTLSRVLKGGSVRKLRRAKQLVLELGEEAILEGCVGPPGEAAVGLLQFNLSELFSWWIRQGEGRLRIRLMPEKKASEVGREGRLSAAIRASQPRLLFQIFGTGHSSLESPTNMPSPSPDYFTWNLTWIMKDSFPFLSHRSRYGLECSFDFPCELEYSPPLHDLRNQSWSWRRIPSEEASQMDLLDGPGAERSKEMPRGSFLLLNTSADSKHTILSPWMRSSSEHCTLAVSVHRHLQPSGRYIAQLLPHNEAAREILLMPTPGKHGWTVLQGRIGRPDNPFRVALEYISSGNRSLSAVDFFALKNCSEGTSPGSKMALQSSFTCWNGTVLQLGQACDFHQDCAQGEDESQMCRKLPVGFYCNFEDGFCGWTQGTLSPHTPQWQVRTLKDARFQDHQDHALLLSTTDVPASESATVTSATFPAPIKSSPCELRMSWLIRGVLRGNVSLVLVENKTGKEQGRMVWHVAAYEGLSLWQWMVLPLLDVSDRFWLQMVAWWGQGSRAIVAFDNISISLDCYLTISGEDKILQNTAPKSRNLFERNPNKELKPGENSPRQTPIFDPTVHWLFTTCGASGPHGPTQAQCNNAYQNSNLSVEVGSEGPLKGIQIWKVPATDTYSISGYGAAGGKGGKNTMMRSHGVSVLGIFNLEKDDMLYILVGQQGEDACPSTNQLIQKVCIGENNVIEEEIRVNRSVHEWAGGGGGGGGATYVFKMKDGVPVPLIIAAGGGGRAYGAKTDTFHPERLENNSSVLGLNGNSGAAGGGGGWNDNTSLLWAGKSLQEGATGGHSCPQAMKKWGWETRGGFGGGGGGCSSGGGGGGYIGGNAASNNDPEMDGEDGVSFISPLGILYTPALKVMEGHGEVNIKHYLNCSHCEVDECHMDPESHKVICFCDHGTVLAEDGVSCIVSPTPEPHLPLSLILSVVTSALVAALVLAFSGIMIVYRRKHQELQAMQMELQSPEYKLSKLRTSTIMTDYNPNYCFAGKTSSISDLKEVPRKNITLIRGLGHGAFGEVYEGQVSGMPNDPSPLQVAVKTLPEVCSEQDELDFLMEALIISKFNHQNIVRCIGVSLQSLPRFILLELMAGGDLKSFLRETRPRPSQPSSLAMLDLLHVARDIACGCQYLEENHFIHRDIAARNCLLTCPGPGRVAKIGDFGMARDIYRASYYRKGGCAMLPVKWMPPEAFMEGIFTSKTDTWSFGVLLWEIFSLGYMPYPSKSNQEVLEFVTSGGRMDPPKNCPGPVYRIMTQCWQHQPEDRPNFAIILERIEYCTQDPDVINTALPIEYGPLVEEEEKVPVRPKDPEGVPPLLVSQQAKREEERSPAAPPPLPTTSSGKAAKKPTAAEISVRVPRGPAVEGGHVNMAFSQSNPPSELHKVHGSRNKPTSLWNPTYGSWFTEKPTKKNNPIAKKEPHDRGNLGLEGSCTVPPNVATGRLPGASLLLEPSSLTANMKEVPLFRLRHFPCGNVNYGYQQQGLPLEAATAPGAGHYEDTILKSKNSMNQPGP

> <PDB ID(s) of Target Chain>
2XB7,2XBA,3AOX,5FTO,5FTQ,6E0R,6EBW,6EDL,6MX8

> <UniProt (SwissProt) Recommended Name of Target Chain>
ALK tyrosine kinase receptor

> <UniProt (SwissProt) Entry Name of Target Chain>
ALK_HUMAN

> <UniProt (SwissProt) Primary ID of Target Chain>
Q9UM73

> <UniProt (SwissProt) Secondary ID(s) of Target Chain>
Q4ZFX9,Q53QQ6,Q53RZ4,Q59FI3,Q9Y4K6

> <UniProt (SwissProt) Alternative ID(s) of Target Chain>


> <UniProt (TrEMBL) Submitted Name of Target Chain>


> <UniProt (TrEMBL) Entry Name of Target Chain>


> <UniProt (TrEMBL) Primary ID of Target Chain>


> <UniProt (TrEMBL) Secondary ID(s) of Target Chain>


> <UniProt (TrEMBL) Alternative ID(s) of Target Chain>


$$$$
00268001.cdx
  Mrv0541 10181809492D          

 39 42  0  0  0  0            999 V2000
   -3.9296    1.8562    0.0000 C   0  0  0  0  0  0  0  0  0  0  0  0
   -3.9296    1.0312    0.0000 C   0  0  0  0  0  0  0  0  0  0  0  0
   -3.2151    0.6187    0.0000 C   0  0  0  0  0  0  0  0  0  0  0  0
   -2.5006    1.0312    0.0000 C   0  0  0  0  0  0  0  0  0  0  0  0
   -2.5006    1.8562    0.0000 C   0  0  0  0  0  0  0  0  0  0  0  0
   -3.2151    2.2687    0.0000 C   0  0  0  0  0  0  0  0  0  0  0  0
   -1.7862    0.6187    0.0000 N   0  0  0  0  0  0  0  0  0  0  0  0
   -1.0717    1.0312    0.0000 C   0  0  0  0  0  0  0  0  0  0  0  0
   -1.0717    1.8562    0.0000 C   0  0  0  0  0  0  0  0  0  0  0  0
   -1.7862    2.2687    0.0000 S   0  0  0  0  0  0  0  0  0  0  0  0
   -1.7862   -0.2063    0.0000 C   0  0  0  0  0  0  0  0  0  0  0  0
   -0.3572    2.2687    0.0000 C   0  0  0  0  0  0  0  0  0  0  0  0
   -1.3737    2.9832    0.0000 O   0  0  0  0  0  0  0  0  0  0  0  0
   -2.3695    2.8521    0.0000 O   0  0  0  0  0  0  0  0  0  0  0  0
   -2.5006   -0.6188    0.0000 C   0  0  0  0  0  0  0  0  0  0  0  0
   -2.5006   -1.4438    0.0000 C   0  0  0  0  0  0  0  0  0  0  0  0
   -1.7862   -1.8563    0.0000 N   0  0  0  0  0  0  0  0  0  0  0  0
   -1.0717   -1.4438    0.0000 C   0  0  0  0  0  0  0  0  0  0  0  0
   -1.0717   -0.6188    0.0000 N   0  0  0  0  0  0  0  0  0  0  0  0
   -3.2151   -0.2063    0.0000 Cl  0  0  0  0  0  0  0  0  0  0  0  0
   -0.3572   -1.8563    0.0000 N   0  0  0  0  0  0  0  0  0  0  0  0
    0.3572   -1.4438    0.0000 C   0  0  0  0  0  0  0  0  0  0  0  0
    1.0717   -1.8563    0.0000 C   0  0  0  0  0  0  0  0  0  0  0  0
    1.7862   -1.4438    0.0000 C   0  0  0  0  0  0  0  0  0  0  0  0
    1.7862   -0.6188    0.0000 C   0  0  0  0  0  0  0  0  0  0  0  0
    1.0717   -0.2063    0.0000 C   0  0  0  0  0  0  0  0  0  0  0  0
    0.3572   -0.6188    0.0000 C   0  0  0  0  0  0  0  0  0  0  0  0
    1.0717   -2.6813    0.0000 O   0  0  0  0  0  0  0  0  0  0  0  0
    1.7862   -3.0938    0.0000 C   0  0  0  0  0  0  0  0  0  0  0  0
    2.5006   -0.2063    0.0000 C   0  0  0  0  0  0  0  0  0  0  0  0
    2.5006    0.6188    0.0000 C   0  0  0  0  0  0  0  0  0  0  0  0
    1.7862    1.0313    0.0000 N   0  0  0  0  0  0  0  0  0  0  0  0
    1.0717    0.6188    0.0000 C   0  0  0  0  0  0  0  0  0  0  0  0
    1.7862    1.8563    0.0000 C   0  0  0  0  0  0  0  0  0  0  0  0
    2.5006    2.2688    0.0000 C   0  0  0  0  0  0  0  0  0  0  0  0
    2.5006    3.0938    0.0000 O   0  0  0  0  0  0  0  0  0  0  0  0
    3.2151    1.8563    0.0000 N   0  0  0  0  0  0  0  0  0  0  0  0
    3.9296    2.2688    0.0000 C   0  0  0  0  0  0  0  0  0  0  0  0
    3.2151    1.0313    0.0000 C   0  0  0  0  0  0  0  0  0  0  0  0
  1  2  4  0  0  0  0
  2  3  4  0  0  0  0
  3  4  4  0  0  0  0
  4  5  4  0  0  0  0
  5  6  4  0  0  0  0
  6  1  4  0  0  0  0
  4  7  1  0  0  0  0
  8  9  1  0  0  0  0
  9 10  1  0  0  0  0
 10  5  1  0  0  0  0
  7 11  1  0  0  0  0
  9 12  1  0  0  0  0
 10 13  2  0  0  0  0
 10 14  2  0  0  0  0
 11 15  4  0  0  0  0
 15 16  4  0  0  0  0
 16 17  4  0  0  0  0
 17 18  4  0  0  0  0
 18 19  4  0  0  0  0
 19 11  4  0  0  0  0
 15 20  1  0  0  0  0
 18 21  1  0  0  0  0
 21 22  1  0  0  0  0
 22 23  4  0  0  0  0
 23 24  4  0  0  0  0
 24 25  4  0  0  0  0
 25 26  4  0  0  0  0
 26 27  4  0  0  0  0
 27 22  4  0  0  0  0
 23 28  1  0  0  0  0
 28 29  1  0  0  0  0
 25 30  1  0  0  0  0
 30 31  1  0  0  0  0
 31 32  1  0  0  0  0
 32 33  1  0  0  0  0
 33 26  1  0  0  0  0
 32 34  1  0  0  0  0
 34 35  1  0  0  0  0
 35 36  2  0  0  0  0
 35 37  1  0  0  0  0
 37 38  1  0  0  0  0
 37 39  1  0  0  0  0
M  END
> <From>
www.bindingDB.org

> <BindingDB Reactant_set_id>
490442

> <Ligand InChI>
InChI=1S/C27H33ClN6O4S/c1-17(2)39(36,37)24-9-7-6-8-21(24)30-26-20(28)14-29-27(32-26)31-22-12-19-15-34(16-25(35)33(3)4)11-10-18(19)13-23(22)38-5/h6-9,12-14,17H,10-11,15-16H2,1-5H3,(H2,29,30,31,32)

> <Ligand InChI Key>
HUTGSNJLUXEPLW-UHFFFAOYSA-N

> <BindingDB MonomerID>
243428

> <BindingDB Ligand Name>
2-(7-(5-chloro-4-(2-(isopropylsulfonyl)phenylamino)pyrimidin-2 yl)amino)-6-methoxy-3,4-dihydroisoquinolin-2(1H)-yl)-N, N-dimethylacetamide::US10053458, 42

> <Target Name Assigned by Curator or DataSource>
ALK tyrosine kinase receptor

> <Target Source Organism According to Curator or DataSource>
Homo sapiens

> <Ki (nM)>


> <IC50 (nM)>
<10.00

> <Kd (nM)>


> <EC50 (nM)>


> <kon (M-1-s-1)>


> <koff (s-1)>


> <pH>


> <Temp C>
25.00

> <Curation/DataSource>
US Patent

> <Article DOI>


> <PMID>


> <PubChem AID>


> <Patent Number>
US10053458

> <Authors>
Yun, CS; Kim, HR; Cho, SY; Jung, HJ; Lee, K; Chae, CH; Lee, CO; Park, CH; Kim, P; Hwang, JY; Ha, JD; Ahn, SJ

> <Institution>
KOREA RESEARCH INSTITUTE OF CHEMICAL TECHNOLOGY

> <Link to Ligand in BindingDB>
http://www.bindingdb.org/bind/chemsearch/marvin/MolStructure.jsp?monomerid=243428

> <Link to Ligand-Target Pair in BindingDB>
http://www.bindingdb.org/jsp/dbsearch/PrimarySearch_ki.jsp?energyterm=kJ/mole&tag=pol&polymerid=5809&target=ALK+tyrosine+kinase+receptor&column=ki&startPg=0&Increment=50&submit=Search

> <Link to Ligand-Target Pair in BindingDB>
http://www.bindingdb.org/jsp/dbsearch/PrimarySearch_ki.jsp?energyterm=kJ/mole&tag=r21&monomerid=243428&enzyme=ALK+tyrosine+kinase+receptor&column=ki&startPg=0&Increment=50&submit=Search

> <Ligand HET ID in PDB>


> <PDB ID(s) for Ligand-Target Complex>


> <PubChem CID>
129147991

> <PubChem SID>
376221808

> <ChEBI ID of Ligand>


> <ChEMBL ID of Ligand>


> <DrugBank ID of Ligand>


> <IUPHAR_GRAC ID of Ligand>


> <KEGG ID of Ligand>


> <ZINC ID of Ligand>


> <Number of Protein Chains in Target (>1 implies a multichain complex)>
1

> <BindingDB Target Chain Sequence>
MGAIGLLWLLPLLLSTAAVGSGMGTGQRAGSPAAGPPLQPREPLSYSRLQRKSLAVDFVVPSLFRVYARDLLLPPSSSELKAGRPEARGSLALDCAPLLRLLGPAPGVSWTAGSPAPAEARTLSRVLKGGSVRKLRRAKQLVLELGEEAILEGCVGPPGEAAVGLLQFNLSELFSWWIRQGEGRLRIRLMPEKKASEVGREGRLSAAIRASQPRLLFQIFGTGHSSLESPTNMPSPSPDYFTWNLTWIMKDSFPFLSHRSRYGLECSFDFPCELEYSPPLHDLRNQSWSWRRIPSEEASQMDLLDGPGAERSKEMPRGSFLLLNTSADSKHTILSPWMRSSSEHCTLAVSVHRHLQPSGRYIAQLLPHNEAAREILLMPTPGKHGWTVLQGRIGRPDNPFRVALEYISSGNRSLSAVDFFALKNCSEGTSPGSKMALQSSFTCWNGTVLQLGQACDFHQDCAQGEDESQMCRKLPVGFYCNFEDGFCGWTQGTLSPHTPQWQVRTLKDARFQDHQDHALLLSTTDVPASESATVTSATFPAPIKSSPCELRMSWLIRGVLRGNVSLVLVENKTGKEQGRMVWHVAAYEGLSLWQWMVLPLLDVSDRFWLQMVAWWGQGSRAIVAFDNISISLDCYLTISGEDKILQNTAPKSRNLFERNPNKELKPGENSPRQTPIFDPTVHWLFTTCGASGPHGPTQAQCNNAYQNSNLSVEVGSEGPLKGIQIWKVPATDTYSISGYGAAGGKGGKNTMMRSHGVSVLGIFNLEKDDMLYILVGQQGEDACPSTNQLIQKVCIGENNVIEEEIRVNRSVHEWAGGGGGGGGATYVFKMKDGVPVPLIIAAGGGGRAYGAKTDTFHPERLENNSSVLGLNGNSGAAGGGGGWNDNTSLLWAGKSLQEGATGGHSCPQAMKKWGWETRGGFGGGGGGCSSGGGGGGYIGGNAASNNDPEMDGEDGVSFISPLGILYTPALKVMEGHGEVNIKHYLNCSHCEVDECHMDPESHKVICFCDHGTVLAEDGVSCIVSPTPEPHLPLSLILSVVTSALVAALVLAFSGIMIVYRRKHQELQAMQMELQSPEYKLSKLRTSTIMTDYNPNYCFAGKTSSISDLKEVPRKNITLIRGLGHGAFGEVYEGQVSGMPNDPSPLQVAVKTLPEVCSEQDELDFLMEALIISKFNHQNIVRCIGVSLQSLPRFILLELMAGGDLKSFLRETRPRPSQPSSLAMLDLLHVARDIACGCQYLEENHFIHRDIAARNCLLTCPGPGRVAKIGDFGMARDIYRASYYRKGGCAMLPVKWMPPEAFMEGIFTSKTDTWSFGVLLWEIFSLGYMPYPSKSNQEVLEFVTSGGRMDPPKNCPGPVYRIMTQCWQHQPEDRPNFAIILERIEYCTQDPDVINTALPIEYGPLVEEEEKVPVRPKDPEGVPPLLVSQQAKREEERSPAAPPPLPTTSSGKAAKKPTAAEISVRVPRGPAVEGGHVNMAFSQSNPPSELHKVHGSRNKPTSLWNPTYGSWFTEKPTKKNNPIAKKEPHDRGNLGLEGSCTVPPNVATGRLPGASLLLEPSSLTANMKEVPLFRLRHFPCGNVNYGYQQQGLPLEAATAPGAGHYEDTILKSKNSMNQPGP

> <PDB ID(s) of Target Chain>
2XB7,2XBA,3AOX,5FTO,5FTQ,6E0R,6EBW,6EDL,6MX8

> <UniProt (SwissProt) Recommended Name of Target Chain>
ALK tyrosine kinase receptor

> <UniProt (SwissProt) Entry Name of Target Chain>
ALK_HUMAN

> <UniProt (SwissProt) Primary ID of Target Chain>
Q9UM73

> <UniProt (SwissProt) Secondary ID(s) of Target Chain>
Q4ZFX9,Q53QQ6,Q53RZ4,Q59FI3,Q9Y4K6

> <UniProt (SwissProt) Alternative ID(s) of Target Chain>


> <UniProt (TrEMBL) Submitted Name of Target Chain>


> <UniProt (TrEMBL) Entry Name of Target Chain>


> <UniProt (TrEMBL) Primary ID of Target Chain>


> <UniProt (TrEMBL) Secondary ID(s) of Target Chain>


> <UniProt (TrEMBL) Alternative ID(s) of Target Chain>


$$$$
00269001.cdx
  Mrv0541 10181809492D          

 38 41  0  0  0  0            999 V2000
   -3.5724    1.6500    0.0000 C   0  0  0  0  0  0  0  0  0  0  0  0
   -3.5724    0.8250    0.0000 C   0  0  0  0  0  0  0  0  0  0  0  0
   -2.8579    0.4125    0.0000 C   0  0  0  0  0  0  0  0  0  0  0  0
   -2.1434    0.8250    0.0000 C   0  0  0  0  0  0  0  0  0  0  0  0
   -2.1434    1.6500    0.0000 C   0  0  0  0  0  0  0  0  0  0  0  0
   -2.8579    2.0625    0.0000 C   0  0  0  0  0  0  0  0  0  0  0  0
   -1.4289    0.4125    0.0000 N   0  0  0  0  0  0  0  0  0  0  0  0
   -0.7145    0.8250    0.0000 C   0  0  0  0  0  0  0  0  0  0  0  0
   -0.7145    1.6500    0.0000 C   0  0  0  0  0  0  0  0  0  0  0  0
   -1.4289    2.0625    0.0000 S   0  0  0  0  0  0  0  0  0  0  0  0
   -1.4289   -0.4125    0.0000 C   0  0  0  0  0  0  0  0  0  0  0  0
    0.0000    2.0625    0.0000 C   0  0  0  0  0  0  0  0  0  0  0  0
   -1.0164    2.7770    0.0000 O   0  0  0  0  0  0  0  0  0  0  0  0
   -2.0123    2.6459    0.0000 O   0  0  0  0  0  0  0  0  0  0  0  0
   -2.1434   -0.8250    0.0000 C   0  0  0  0  0  0  0  0  0  0  0  0
   -2.1434   -1.6500    0.0000 C   0  0  0  0  0  0  0  0  0  0  0  0
   -1.4289   -2.0625    0.0000 N   0  0  0  0  0  0  0  0  0  0  0  0
   -0.7145   -1.6500    0.0000 C   0  0  0  0  0  0  0  0  0  0  0  0
   -0.7145   -0.8250    0.0000 N   0  0  0  0  0  0  0  0  0  0  0  0
   -2.8579   -0.4125    0.0000 Cl  0  0  0  0  0  0  0  0  0  0  0  0
    0.0000   -2.0625    0.0000 N   0  0  0  0  0  0  0  0  0  0  0  0
    0.7145   -1.6500    0.0000 C   0  0  0  0  0  0  0  0  0  0  0  0
    1.4289   -2.0625    0.0000 C   0  0  0  0  0  0  0  0  0  0  0  0
    2.1434   -1.6500    0.0000 C   0  0  0  0  0  0  0  0  0  0  0  0
    2.1434   -0.8250    0.0000 C   0  0  0  0  0  0  0  0  0  0  0  0
    1.4289   -0.4125    0.0000 C   0  0  0  0  0  0  0  0  0  0  0  0
    0.7145   -0.8250    0.0000 C   0  0  0  0  0  0  0  0  0  0  0  0
    1.4289   -2.8875    0.0000 O   0  0  0  0  0  0  0  0  0  0  0  0
    2.1434   -3.3000    0.0000 C   0  0  0  0  0  0  0  0  0  0  0  0
    2.8579   -0.4125    0.0000 C   0  0  0  0  0  0  0  0  0  0  0  0
    2.8579    0.4125    0.0000 C   0  0  0  0  0  0  0  0  0  0  0  0
    2.1434    0.8250    0.0000 N   0  0  0  0  0  0  0  0  0  0  0  0
    1.4289    0.4125    0.0000 C   0  0  0  0  0  0  0  0  0  0  0  0
    2.1434    1.6500    0.0000 C   0  0  0  0  0  0  0  0  0  0  0  0
    2.8579    2.0625    0.0000 C   0  0  0  0  0  0  0  0  0  0  0  0
    2.8579    2.8875    0.0000 N   0  0  0  0  0  0  0  0  0  0  0  0
    3.5724    3.3000    0.0000 C   0  0  0  0  0  0  0  0  0  0  0  0
    2.1434    3.3000    0.0000 C   0  0  0  0  0  0  0  0  0  0  0  0
  1  2  4  0  0  0  0
  2  3  4  0  0  0  0
  3  4  4  0  0  0  0
  4  5  4  0  0  0  0
  5  6  4  0  0  0  0
  6  1  4  0  0  0  0
  4  7  1  0  0  0  0
  8  9  1  0  0  0  0
  9 10  1  0  0  0  0
 10  5  1  0  0  0  0
  7 11  1  0  0  0  0
  9 12  1  0  0  0  0
 10 13  2  0  0  0  0
 10 14  2  0  0  0  0
 11 15  4  0  0  0  0
 15 16  4  0  0  0  0
 16 17  4  0  0  0  0
 17 18  4  0  0  0  0
 18 19  4  0  0  0  0
 19 11  4  0  0  0  0
 15 20  1  0  0  0  0
 18 21  1  0  0  0  0
 21 22  1  0  0  0  0
 22 23  4  0  0  0  0
 23 24  4  0  0  0  0
 24 25  4  0  0  0  0
 25 26  4  0  0  0  0
 26 27  4  0  0  0  0
 27 22  4  0  0  0  0
 23 28  1  0  0  0  0
 28 29  1  0  0  0  0
 25 30  1  0  0  0  0
 30 31  1  0  0  0  0
 31 32  1  0  0  0  0
 32 33  1  0  0  0  0
 33 26  1  0  0  0  0
 32 34  1  0  0  0  0
 34 35  1  0  0  0  0
 35 36  1  0  0  0  0
 36 37  1  0  0  0  0
 36 38  1  0  0  0  0
M  END
> <From>
www.bindingDB.org

> <BindingDB Reactant_set_id>
490444

> <Ligand InChI>
InChI=1S/C27H35ClN6O3S/c1-18(2)38(35,36)25-9-7-6-8-22(25)30-26-21(28)16-29-27(32-26)31-23-14-20-17-34(13-12-33(3)4)11-10-19(20)15-24(23)37-5/h6-9,14-16,18H,10-13,17H2,1-5H3,(H2,29,30,31,32)

> <Ligand InChI Key>
RVSAJPCEEDMVAU-UHFFFAOYSA-N

> <BindingDB MonomerID>
243429

> <BindingDB Ligand Name>
5-chloro-N4-(2-(isopropylsulfonyl)phenyl)-N2-(2-(2-(dimethylaminoethyl)-6-methoxy-1,2,3,4-tetrahydroquinolin-7-yl)pyrimidine-2,4-diamine::US10053458, 43

> <Target Name Assigned by Curator or DataSource>
ALK tyrosine kinase receptor

> <Target Source Organism According to Curator or DataSource>
Homo sapiens

> <Ki (nM)>


> <IC50 (nM)>
<10.00

> <Kd (nM)>


> <EC50 (nM)>


> <kon (M-1-s-1)>


> <koff (s-1)>


> <pH>


> <Temp C>
25.00

> <Curation/DataSource>
US Patent

> <Article DOI>


> <PMID>


> <PubChem AID>


> <Patent Number>
US10053458

> <Authors>
Yun, CS; Kim, HR; Cho, SY; Jung, HJ; Lee, K; Chae, CH; Lee, CO; Park, CH; Kim, P; Hwang, JY; Ha, JD; Ahn, SJ

> <Institution>
KOREA RESEARCH INSTITUTE OF CHEMICAL TECHNOLOGY

> <Link to Ligand in BindingDB>
http://www.bindingdb.org/bind/chemsearch/marvin/MolStructure.jsp?monomerid=243429

> <Link to Ligand-Target Pair in BindingDB>
http://www.bindingdb.org/jsp/dbsearch/PrimarySearch_ki.jsp?energyterm=kJ/mole&tag=pol&polymerid=5809&target=ALK+tyrosine+kinase+receptor&column=ki&startPg=0&Increment=50&submit=Search

> <Link to Ligand-Target Pair in BindingDB>
http://www.bindingdb.org/jsp/dbsearch/PrimarySearch_ki.jsp?energyterm=kJ/mole&tag=r21&monomerid=243429&enzyme=ALK+tyrosine+kinase+receptor&column=ki&startPg=0&Increment=50&submit=Search

> <Ligand HET ID in PDB>


> <PDB ID(s) for Ligand-Target Complex>


> <PubChem CID>
129147990

> <PubChem SID>
376221809

> <ChEBI ID of Ligand>


> <ChEMBL ID of Ligand>


> <DrugBank ID of Ligand>


> <IUPHAR_GRAC ID of Ligand>


> <KEGG ID of Ligand>


> <ZINC ID of Ligand>


> <Number of Protein Chains in Target (>1 implies a multichain complex)>
1

> <BindingDB Target Chain Sequence>
MGAIGLLWLLPLLLSTAAVGSGMGTGQRAGSPAAGPPLQPREPLSYSRLQRKSLAVDFVVPSLFRVYARDLLLPPSSSELKAGRPEARGSLALDCAPLLRLLGPAPGVSWTAGSPAPAEARTLSRVLKGGSVRKLRRAKQLVLELGEEAILEGCVGPPGEAAVGLLQFNLSELFSWWIRQGEGRLRIRLMPEKKASEVGREGRLSAAIRASQPRLLFQIFGTGHSSLESPTNMPSPSPDYFTWNLTWIMKDSFPFLSHRSRYGLECSFDFPCELEYSPPLHDLRNQSWSWRRIPSEEASQMDLLDGPGAERSKEMPRGSFLLLNTSADSKHTILSPWMRSSSEHCTLAVSVHRHLQPSGRYIAQLLPHNEAAREILLMPTPGKHGWTVLQGRIGRPDNPFRVALEYISSGNRSLSAVDFFALKNCSEGTSPGSKMALQSSFTCWNGTVLQLGQACDFHQDCAQGEDESQMCRKLPVGFYCNFEDGFCGWTQGTLSPHTPQWQVRTLKDARFQDHQDHALLLSTTDVPASESATVTSATFPAPIKSSPCELRMSWLIRGVLRGNVSLVLVENKTGKEQGRMVWHVAAYEGLSLWQWMVLPLLDVSDRFWLQMVAWWGQGSRAIVAFDNISISLDCYLTISGEDKILQNTAPKSRNLFERNPNKELKPGENSPRQTPIFDPTVHWLFTTCGASGPHGPTQAQCNNAYQNSNLSVEVGSEGPLKGIQIWKVPATDTYSISGYGAAGGKGGKNTMMRSHGVSVLGIFNLEKDDMLYILVGQQGEDACPSTNQLIQKVCIGENNVIEEEIRVNRSVHEWAGGGGGGGGATYVFKMKDGVPVPLIIAAGGGGRAYGAKTDTFHPERLENNSSVLGLNGNSGAAGGGGGWNDNTSLLWAGKSLQEGATGGHSCPQAMKKWGWETRGGFGGGGGGCSSGGGGGGYIGGNAASNNDPEMDGEDGVSFISPLGILYTPALKVMEGHGEVNIKHYLNCSHCEVDECHMDPESHKVICFCDHGTVLAEDGVSCIVSPTPEPHLPLSLILSVVTSALVAALVLAFSGIMIVYRRKHQELQAMQMELQSPEYKLSKLRTSTIMTDYNPNYCFAGKTSSISDLKEVPRKNITLIRGLGHGAFGEVYEGQVSGMPNDPSPLQVAVKTLPEVCSEQDELDFLMEALIISKFNHQNIVRCIGVSLQSLPRFILLELMAGGDLKSFLRETRPRPSQPSSLAMLDLLHVARDIACGCQYLEENHFIHRDIAARNCLLTCPGPGRVAKIGDFGMARDIYRASYYRKGGCAMLPVKWMPPEAFMEGIFTSKTDTWSFGVLLWEIFSLGYMPYPSKSNQEVLEFVTSGGRMDPPKNCPGPVYRIMTQCWQHQPEDRPNFAIILERIEYCTQDPDVINTALPIEYGPLVEEEEKVPVRPKDPEGVPPLLVSQQAKREEERSPAAPPPLPTTSSGKAAKKPTAAEISVRVPRGPAVEGGHVNMAFSQSNPPSELHKVHGSRNKPTSLWNPTYGSWFTEKPTKKNNPIAKKEPHDRGNLGLEGSCTVPPNVATGRLPGASLLLEPSSLTANMKEVPLFRLRHFPCGNVNYGYQQQGLPLEAATAPGAGHYEDTILKSKNSMNQPGP

> <PDB ID(s) of Target Chain>
2XB7,2XBA,3AOX,5FTO,5FTQ,6E0R,6EBW,6EDL,6MX8

> <UniProt (SwissProt) Recommended Name of Target Chain>
ALK tyrosine kinase receptor

> <UniProt (SwissProt) Entry Name of Target Chain>
ALK_HUMAN

> <UniProt (SwissProt) Primary ID of Target Chain>
Q9UM73

> <UniProt (SwissProt) Secondary ID(s) of Target Chain>
Q4ZFX9,Q53QQ6,Q53RZ4,Q59FI3,Q9Y4K6

> <UniProt (SwissProt) Alternative ID(s) of Target Chain>


> <UniProt (TrEMBL) Submitted Name of Target Chain>


> <UniProt (TrEMBL) Entry Name of Target Chain>


> <UniProt (TrEMBL) Primary ID of Target Chain>


> <UniProt (TrEMBL) Secondary ID(s) of Target Chain>


> <UniProt (TrEMBL) Alternative ID(s) of Target Chain>


$$$$
00270001.cdx
  Mrv0541 10181809492D          

 34 37  0  0  0  0            999 V2000
   -3.2151    1.9115    0.0000 C   0  0  0  0  0  0  0  0  0  0  0  0
   -3.2151    1.0865    0.0000 C   0  0  0  0  0  0  0  0  0  0  0  0
   -2.5006    0.6740    0.0000 C   0  0  0  0  0  0  0  0  0  0  0  0
   -1.7862    1.0865    0.0000 C   0  0  0  0  0  0  0  0  0  0  0  0
   -1.7862    1.9115    0.0000 C   0  0  0  0  0  0  0  0  0  0  0  0
   -2.5006    2.3240    0.0000 C   0  0  0  0  0  0  0  0  0  0  0  0
   -1.0717    0.6740    0.0000 N   0  0  0  0  0  0  0  0  0  0  0  0
   -0.3572    1.0865    0.0000 C   0  0  0  0  0  0  0  0  0  0  0  0
   -0.3572    1.9115    0.0000 C   0  0  0  0  0  0  0  0  0  0  0  0
   -1.0717    2.3240    0.0000 S   0  0  0  0  0  0  0  0  0  0  0  0
   -1.0717   -0.1510    0.0000 C   0  0  0  0  0  0  0  0  0  0  0  0
    0.3572    2.3240    0.0000 C   0  0  0  0  0  0  0  0  0  0  0  0
   -0.6592    3.0385    0.0000 O   0  0  0  0  0  0  0  0  0  0  0  0
   -1.6551    2.9074    0.0000 O   0  0  0  0  0  0  0  0  0  0  0  0
   -1.7862   -0.5635    0.0000 C   0  0  0  0  0  0  0  0  0  0  0  0
   -1.7862   -1.3885    0.0000 C   0  0  0  0  0  0  0  0  0  0  0  0
   -1.0717   -1.8010    0.0000 N   0  0  0  0  0  0  0  0  0  0  0  0
   -0.3572   -1.3885    0.0000 C   0  0  0  0  0  0  0  0  0  0  0  0
   -0.3572   -0.5635    0.0000 N   0  0  0  0  0  0  0  0  0  0  0  0
   -2.5006   -0.1510    0.0000 Cl  0  0  0  0  0  0  0  0  0  0  0  0
    0.3572   -1.8010    0.0000 N   0  0  0  0  0  0  0  0  0  0  0  0
    1.0717   -1.3885    0.0000 C   0  0  0  0  0  0  0  0  0  0  0  0
    1.7862   -1.8010    0.0000 C   0  0  0  0  0  0  0  0  0  0  0  0
    2.5006   -1.3885    0.0000 C   0  0  0  0  0  0  0  0  0  0  0  0
    2.5006   -0.5635    0.0000 C   0  0  0  0  0  0  0  0  0  0  0  0
    1.7862   -0.1510    0.0000 C   0  0  0  0  0  0  0  0  0  0  0  0
    1.0717   -0.5635    0.0000 C   0  0  0  0  0  0  0  0  0  0  0  0
    1.7862   -2.6260    0.0000 O   0  0  0  0  0  0  0  0  0  0  0  0
    2.5006   -3.0385    0.0000 C   0  0  0  0  0  0  0  0  0  0  0  0
    3.2151   -0.1510    0.0000 C   0  0  0  0  0  0  0  0  0  0  0  0
    3.2151    0.6740    0.0000 C   0  0  0  0  0  0  0  0  0  0  0  0
    2.5006    1.0865    0.0000 N   0  0  0  0  0  0  0  0  0  0  0  0
    1.7862    0.6740    0.0000 C   0  0  0  0  0  0  0  0  0  0  0  0
    1.0717    1.0865    0.0000 O   0  0  0  0  0  0  0  0  0  0  0  0
  1  2  4  0  0  0  0
  2  3  4  0  0  0  0
  3  4  4  0  0  0  0
  4  5  4  0  0  0  0
  5  6  4  0  0  0  0
  6  1  4  0  0  0  0
  4  7  1  0  0  0  0
  8  9  1  0  0  0  0
  9 10  1  0  0  0  0
 10  5  1  0  0  0  0
  7 11  1  0  0  0  0
  9 12  1  0  0  0  0
 10 13  2  0  0  0  0
 10 14  2  0  0  0  0
 11 15  4  0  0  0  0
 15 16  4  0  0  0  0
 16 17  4  0  0  0  0
 17 18  4  0  0  0  0
 18 19  4  0  0  0  0
 19 11  4  0  0  0  0
 15 20  1  0  0  0  0
 18 21  1  0  0  0  0
 21 22  1  0  0  0  0
 22 23  4  0  0  0  0
 23 24  4  0  0  0  0
 24 25  4  0  0  0  0
 25 26  4  0  0  0  0
 26 27  4  0  0  0  0
 27 22  4  0  0  0  0
 23 28  1  0  0  0  0
 28 29  1  0  0  0  0
 25 30  1  0  0  0  0
 30 31  1  0  0  0  0
 31 32  1  0  0  0  0
 32 33  1  0  0  0  0
 33 26  1  0  0  0  0
 33 34  2  0  0  0  0
M  END
> <From>
www.bindingDB.org

> <BindingDB Reactant_set_id>
490446

> <Ligand InChI>
InChI=1S/C23H24ClN5O4S/c1-13(2)34(31,32)20-7-5-4-6-17(20)27-21-16(24)12-26-23(29-21)28-18-11-15-14(10-19(18)33-3)8-9-25-22(15)30/h4-7,10-13H,8-9H2,1-3H3,(H,25,30)(H2,26,27,28,29)

> <Ligand InChI Key>
RXDLZUCCRLJYIB-UHFFFAOYSA-N

> <BindingDB MonomerID>
243430

> <BindingDB Ligand Name>
7-(5-chloro-4-(2-(isopropylsulfonyl)phenylamino)pyrimidin-2-yl)amino)-6-methoxy-3,4-dihydroisoquinoline-1(2H)-one::US10053458, 44

> <Target Name Assigned by Curator or DataSource>
ALK tyrosine kinase receptor

> <Target Source Organism According to Curator or DataSource>
Homo sapiens

> <Ki (nM)>


> <IC50 (nM)>
<10.00

> <Kd (nM)>


> <EC50 (nM)>


> <kon (M-1-s-1)>


> <koff (s-1)>


> <pH>


> <Temp C>
25.00

> <Curation/DataSource>
US Patent

> <Article DOI>


> <PMID>


> <PubChem AID>


> <Patent Number>
US10053458

> <Authors>
Yun, CS; Kim, HR; Cho, SY; Jung, HJ; Lee, K; Chae, CH; Lee, CO; Park, CH; Kim, P; Hwang, JY; Ha, JD; Ahn, SJ

> <Institution>
KOREA RESEARCH INSTITUTE OF CHEMICAL TECHNOLOGY

> <Link to Ligand in BindingDB>
http://www.bindingdb.org/bind/chemsearch/marvin/MolStructure.jsp?monomerid=243430

> <Link to Ligand-Target Pair in BindingDB>
http://www.bindingdb.org/jsp/dbsearch/PrimarySearch_ki.jsp?energyterm=kJ/mole&tag=pol&polymerid=5809&target=ALK+tyrosine+kinase+receptor&column=ki&startPg=0&Increment=50&submit=Search

> <Link to Ligand-Target Pair in BindingDB>
http://www.bindingdb.org/jsp/dbsearch/PrimarySearch_ki.jsp?energyterm=kJ/mole&tag=r21&monomerid=243430&enzyme=ALK+tyrosine+kinase+receptor&column=ki&startPg=0&Increment=50&submit=Search

> <Ligand HET ID in PDB>


> <PDB ID(s) for Ligand-Target Complex>


> <PubChem CID>
129148008

> <PubChem SID>
376221810

> <ChEBI ID of Ligand>


> <ChEMBL ID of Ligand>


> <DrugBank ID of Ligand>


> <IUPHAR_GRAC ID of Ligand>


> <KEGG ID of Ligand>


> <ZINC ID of Ligand>


> <Number of Protein Chains in Target (>1 implies a multichain complex)>
1

> <BindingDB Target Chain Sequence>
MGAIGLLWLLPLLLSTAAVGSGMGTGQRAGSPAAGPPLQPREPLSYSRLQRKSLAVDFVVPSLFRVYARDLLLPPSSSELKAGRPEARGSLALDCAPLLRLLGPAPGVSWTAGSPAPAEARTLSRVLKGGSVRKLRRAKQLVLELGEEAILEGCVGPPGEAAVGLLQFNLSELFSWWIRQGEGRLRIRLMPEKKASEVGREGRLSAAIRASQPRLLFQIFGTGHSSLESPTNMPSPSPDYFTWNLTWIMKDSFPFLSHRSRYGLECSFDFPCELEYSPPLHDLRNQSWSWRRIPSEEASQMDLLDGPGAERSKEMPRGSFLLLNTSADSKHTILSPWMRSSSEHCTLAVSVHRHLQPSGRYIAQLLPHNEAAREILLMPTPGKHGWTVLQGRIGRPDNPFRVALEYISSGNRSLSAVDFFALKNCSEGTSPGSKMALQSSFTCWNGTVLQLGQACDFHQDCAQGEDESQMCRKLPVGFYCNFEDGFCGWTQGTLSPHTPQWQVRTLKDARFQDHQDHALLLSTTDVPASESATVTSATFPAPIKSSPCELRMSWLIRGVLRGNVSLVLVENKTGKEQGRMVWHVAAYEGLSLWQWMVLPLLDVSDRFWLQMVAWWGQGSRAIVAFDNISISLDCYLTISGEDKILQNTAPKSRNLFERNPNKELKPGENSPRQTPIFDPTVHWLFTTCGASGPHGPTQAQCNNAYQNSNLSVEVGSEGPLKGIQIWKVPATDTYSISGYGAAGGKGGKNTMMRSHGVSVLGIFNLEKDDMLYILVGQQGEDACPSTNQLIQKVCIGENNVIEEEIRVNRSVHEWAGGGGGGGGATYVFKMKDGVPVPLIIAAGGGGRAYGAKTDTFHPERLENNSSVLGLNGNSGAAGGGGGWNDNTSLLWAGKSLQEGATGGHSCPQAMKKWGWETRGGFGGGGGGCSSGGGGGGYIGGNAASNNDPEMDGEDGVSFISPLGILYTPALKVMEGHGEVNIKHYLNCSHCEVDECHMDPESHKVICFCDHGTVLAEDGVSCIVSPTPEPHLPLSLILSVVTSALVAALVLAFSGIMIVYRRKHQELQAMQMELQSPEYKLSKLRTSTIMTDYNPNYCFAGKTSSISDLKEVPRKNITLIRGLGHGAFGEVYEGQVSGMPNDPSPLQVAVKTLPEVCSEQDELDFLMEALIISKFNHQNIVRCIGVSLQSLPRFILLELMAGGDLKSFLRETRPRPSQPSSLAMLDLLHVARDIACGCQYLEENHFIHRDIAARNCLLTCPGPGRVAKIGDFGMARDIYRASYYRKGGCAMLPVKWMPPEAFMEGIFTSKTDTWSFGVLLWEIFSLGYMPYPSKSNQEVLEFVTSGGRMDPPKNCPGPVYRIMTQCWQHQPEDRPNFAIILERIEYCTQDPDVINTALPIEYGPLVEEEEKVPVRPKDPEGVPPLLVSQQAKREEERSPAAPPPLPTTSSGKAAKKPTAAEISVRVPRGPAVEGGHVNMAFSQSNPPSELHKVHGSRNKPTSLWNPTYGSWFTEKPTKKNNPIAKKEPHDRGNLGLEGSCTVPPNVATGRLPGASLLLEPSSLTANMKEVPLFRLRHFPCGNVNYGYQQQGLPLEAATAPGAGHYEDTILKSKNSMNQPGP

> <PDB ID(s) of Target Chain>
2XB7,2XBA,3AOX,5FTO,5FTQ,6E0R,6EBW,6EDL,6MX8

> <UniProt (SwissProt) Recommended Name of Target Chain>
ALK tyrosine kinase receptor

> <UniProt (SwissProt) Entry Name of Target Chain>
ALK_HUMAN

> <UniProt (SwissProt) Primary ID of Target Chain>
Q9UM73

> <UniProt (SwissProt) Secondary ID(s) of Target Chain>
Q4ZFX9,Q53QQ6,Q53RZ4,Q59FI3,Q9Y4K6

> <UniProt (SwissProt) Alternative ID(s) of Target Chain>


> <UniProt (TrEMBL) Submitted Name of Target Chain>


> <UniProt (TrEMBL) Entry Name of Target Chain>


> <UniProt (TrEMBL) Primary ID of Target Chain>


> <UniProt (TrEMBL) Secondary ID(s) of Target Chain>


> <UniProt (TrEMBL) Alternative ID(s) of Target Chain>


$$$$
00275001.cdx
  Mrv0541 10181809492D          

 39 43  0  0  0  0            999 V2000
   -3.2151    1.6500    0.0000 C   0  0  0  0  0  0  0  0  0  0  0  0
   -3.2151    0.8250    0.0000 C   0  0  0  0  0  0  0  0  0  0  0  0
   -2.5006    0.4125    0.0000 C   0  0  0  0  0  0  0  0  0  0  0  0
   -1.7862    0.8250    0.0000 C   0  0  0  0  0  0  0  0  0  0  0  0
   -1.7862    1.6500    0.0000 C   0  0  0  0  0  0  0  0  0  0  0  0
   -2.5006    2.0625    0.0000 C   0  0  0  0  0  0  0  0  0  0  0  0
   -1.0717    0.4125    0.0000 N   0  0  0  0  0  0  0  0  0  0  0  0
   -0.3572    0.8250    0.0000 C   0  0  0  0  0  0  0  0  0  0  0  0
   -0.3572    1.6500    0.0000 C   0  0  0  0  0  0  0  0  0  0  0  0
   -1.0717    2.0625    0.0000 S   0  0  0  0  0  0  0  0  0  0  0  0
   -1.0717   -0.4125    0.0000 C   0  0  0  0  0  0  0  0  0  0  0  0
    0.3572    2.0625    0.0000 C   0  0  0  0  0  0  0  0  0  0  0  0
   -0.6592    2.7770    0.0000 O   0  0  0  0  0  0  0  0  0  0  0  0
   -1.6551    2.6459    0.0000 O   0  0  0  0  0  0  0  0  0  0  0  0
   -1.7862   -0.8250    0.0000 C   0  0  0  0  0  0  0  0  0  0  0  0
   -1.7862   -1.6500    0.0000 C   0  0  0  0  0  0  0  0  0  0  0  0
   -1.0717   -2.0625    0.0000 N   0  0  0  0  0  0  0  0  0  0  0  0
   -0.3572   -1.6500    0.0000 C   0  0  0  0  0  0  0  0  0  0  0  0
   -0.3572   -0.8250    0.0000 N   0  0  0  0  0  0  0  0  0  0  0  0
   -2.5006   -0.4125    0.0000 Cl  0  0  0  0  0  0  0  0  0  0  0  0
    0.3572   -2.0625    0.0000 N   0  0  0  0  0  0  0  0  0  0  0  0
    1.0717   -1.6500    0.0000 C   0  0  0  0  0  0  0  0  0  0  0  0
    1.7862   -2.0625    0.0000 C   0  0  0  0  0  0  0  0  0  0  0  0
    2.5006   -1.6500    0.0000 C   0  0  0  0  0  0  0  0  0  0  0  0
    2.5006   -0.8250    0.0000 C   0  0  0  0  0  0  0  0  0  0  0  0
    1.7862   -0.4125    0.0000 C   0  0  0  0  0  0  0  0  0  0  0  0
    1.0717   -0.8250    0.0000 C   0  0  0  0  0  0  0  0  0  0  0  0
    1.7862   -2.8875    0.0000 O   0  0  0  0  0  0  0  0  0  0  0  0
    2.5006   -3.3000    0.0000 C   0  0  0  0  0  0  0  0  0  0  0  0
    3.2151   -0.4125    0.0000 C   0  0  0  0  0  0  0  0  0  0  0  0
    3.2151    0.4125    0.0000 C   0  0  0  0  0  0  0  0  0  0  0  0
    2.5006    0.8250    0.0000 N   0  0  0  0  0  0  0  0  0  0  0  0
    1.7862    0.4125    0.0000 C   0  0  0  0  0  0  0  0  0  0  0  0
    2.5006    1.6500    0.0000 C   0  0  0  0  0  0  0  0  0  0  0  0
    3.2151    2.0625    0.0000 C   0  0  0  0  0  0  0  0  0  0  0  0
    3.2151    2.8875    0.0000 C   0  0  0  0  0  0  0  0  0  0  0  0
    2.5006    3.3000    0.0000 N   0  0  0  0  0  0  0  0  0  0  0  0
    1.7862    2.8875    0.0000 C   0  0  0  0  0  0  0  0  0  0  0  0
    1.7862    2.0625    0.0000 C   0  0  0  0  0  0  0  0  0  0  0  0
  1  2  4  0  0  0  0
  2  3  4  0  0  0  0
  3  4  4  0  0  0  0
  4  5  4  0  0  0  0
  5  6  4  0  0  0  0
  6  1  4  0  0  0  0
  4  7  1  0  0  0  0
  8  9  1  0  0  0  0
  9 10  1  0  0  0  0
 10  5  1  0  0  0  0
  7 11  1  0  0  0  0
  9 12  1  0  0  0  0
 10 13  2  0  0  0  0
 10 14  2  0  0  0  0
 11 15  4  0  0  0  0
 15 16  4  0  0  0  0
 16 17  4  0  0  0  0
 17 18  4  0  0  0  0
 18 19  4  0  0  0  0
 19 11  4  0  0  0  0
 15 20  1  0  0  0  0
 18 21  1  0  0  0  0
 21 22  1  0  0  0  0
 22 23  4  0  0  0  0
 23 24  4  0  0  0  0
 24 25  4  0  0  0  0
 25 26  4  0  0  0  0
 26 27  4  0  0  0  0
 27 22  4  0  0  0  0
 23 28  1  0  0  0  0
 28 29  1  0  0  0  0
 25 30  1  0  0  0  0
 30 31  1  0  0  0  0
 31 32  1  0  0  0  0
 32 33  1  0  0  0  0
 33 26  1  0  0  0  0
 32 34  1  0  0  0  0
 34 35  1  0  0  0  0
 35 36  1  0  0  0  0
 36 37  1  0  0  0  0
 37 38  1  0  0  0  0
 38 39  1  0  0  0  0
 39 34  1  0  0  0  0
M  END
> <From>
www.bindingDB.org

> <BindingDB Reactant_set_id>
490448

> <Ligand InChI>
InChI=1S/C28H35ClN6O3S/c1-18(2)39(36,37)26-7-5-4-6-23(26)32-27-22(29)16-31-28(34-27)33-24-14-20-17-35(21-8-11-30-12-9-21)13-10-19(20)15-25(24)38-3/h4-7,14-16,18,21,30H,8-13,17H2,1-3H3,(H2,31,32,33,34)

> <Ligand InChI Key>
UWUWJCBNFXGSHW-UHFFFAOYSA-N

> <BindingDB MonomerID>
243431

> <BindingDB Ligand Name>
5-chloro-N4-(2-(isopropylsulfonyl)phenyl)-N2-(6-methoxy-2-(piperidine-4-yl)-1,2,3,4-tetrahydroquinolin-7-yl)pyrimidine-2,4-diamine::US10053458, 45

> <Target Name Assigned by Curator or DataSource>
ALK tyrosine kinase receptor

> <Target Source Organism According to Curator or DataSource>
Homo sapiens

> <Ki (nM)>


> <IC50 (nM)>
 1.000

> <Kd (nM)>


> <EC50 (nM)>


> <kon (M-1-s-1)>


> <koff (s-1)>


> <pH>


> <Temp C>
25.00

> <Curation/DataSource>
US Patent

> <Article DOI>


> <PMID>


> <PubChem AID>


> <Patent Number>
US10053458

> <Authors>
Yun, CS; Kim, HR; Cho, SY; Jung, HJ; Lee, K; Chae, CH; Lee, CO; Park, CH; Kim, P; Hwang, JY; Ha, JD; Ahn, SJ

> <Institution>
KOREA RESEARCH INSTITUTE OF CHEMICAL TECHNOLOGY

> <Link to Ligand in BindingDB>
http://www.bindingdb.org/bind/chemsearch/marvin/MolStructure.jsp?monomerid=243431

> <Link to Ligand-Target Pair in BindingDB>
http://www.bindingdb.org/jsp/dbsearch/PrimarySearch_ki.jsp?energyterm=kJ/mole&tag=pol&polymerid=5809&target=ALK+tyrosine+kinase+receptor&column=ki&startPg=0&Increment=50&submit=Search

> <Link to Ligand-Target Pair in BindingDB>
http://www.bindingdb.org/jsp/dbsearch/PrimarySearch_ki.jsp?energyterm=kJ/mole&tag=r21&monomerid=243431&enzyme=ALK+tyrosine+kinase+receptor&column=ki&startPg=0&Increment=50&submit=Search

> <Ligand HET ID in PDB>


> <PDB ID(s) for Ligand-Target Complex>


> <PubChem CID>
129148010

> <PubChem SID>
376221811

> <ChEBI ID of Ligand>


> <ChEMBL ID of Ligand>


> <DrugBank ID of Ligand>


> <IUPHAR_GRAC ID of Ligand>


> <KEGG ID of Ligand>


> <ZINC ID of Ligand>


> <Number of Protein Chains in Target (>1 implies a multichain complex)>
1

> <BindingDB Target Chain Sequence>
MGAIGLLWLLPLLLSTAAVGSGMGTGQRAGSPAAGPPLQPREPLSYSRLQRKSLAVDFVVPSLFRVYARDLLLPPSSSELKAGRPEARGSLALDCAPLLRLLGPAPGVSWTAGSPAPAEARTLSRVLKGGSVRKLRRAKQLVLELGEEAILEGCVGPPGEAAVGLLQFNLSELFSWWIRQGEGRLRIRLMPEKKASEVGREGRLSAAIRASQPRLLFQIFGTGHSSLESPTNMPSPSPDYFTWNLTWIMKDSFPFLSHRSRYGLECSFDFPCELEYSPPLHDLRNQSWSWRRIPSEEASQMDLLDGPGAERSKEMPRGSFLLLNTSADSKHTILSPWMRSSSEHCTLAVSVHRHLQPSGRYIAQLLPHNEAAREILLMPTPGKHGWTVLQGRIGRPDNPFRVALEYISSGNRSLSAVDFFALKNCSEGTSPGSKMALQSSFTCWNGTVLQLGQACDFHQDCAQGEDESQMCRKLPVGFYCNFEDGFCGWTQGTLSPHTPQWQVRTLKDARFQDHQDHALLLSTTDVPASESATVTSATFPAPIKSSPCELRMSWLIRGVLRGNVSLVLVENKTGKEQGRMVWHVAAYEGLSLWQWMVLPLLDVSDRFWLQMVAWWGQGSRAIVAFDNISISLDCYLTISGEDKILQNTAPKSRNLFERNPNKELKPGENSPRQTPIFDPTVHWLFTTCGASGPHGPTQAQCNNAYQNSNLSVEVGSEGPLKGIQIWKVPATDTYSISGYGAAGGKGGKNTMMRSHGVSVLGIFNLEKDDMLYILVGQQGEDACPSTNQLIQKVCIGENNVIEEEIRVNRSVHEWAGGGGGGGGATYVFKMKDGVPVPLIIAAGGGGRAYGAKTDTFHPERLENNSSVLGLNGNSGAAGGGGGWNDNTSLLWAGKSLQEGATGGHSCPQAMKKWGWETRGGFGGGGGGCSSGGGGGGYIGGNAASNNDPEMDGEDGVSFISPLGILYTPALKVMEGHGEVNIKHYLNCSHCEVDECHMDPESHKVICFCDHGTVLAEDGVSCIVSPTPEPHLPLSLILSVVTSALVAALVLAFSGIMIVYRRKHQELQAMQMELQSPEYKLSKLRTSTIMTDYNPNYCFAGKTSSISDLKEVPRKNITLIRGLGHGAFGEVYEGQVSGMPNDPSPLQVAVKTLPEVCSEQDELDFLMEALIISKFNHQNIVRCIGVSLQSLPRFILLELMAGGDLKSFLRETRPRPSQPSSLAMLDLLHVARDIACGCQYLEENHFIHRDIAARNCLLTCPGPGRVAKIGDFGMARDIYRASYYRKGGCAMLPVKWMPPEAFMEGIFTSKTDTWSFGVLLWEIFSLGYMPYPSKSNQEVLEFVTSGGRMDPPKNCPGPVYRIMTQCWQHQPEDRPNFAIILERIEYCTQDPDVINTALPIEYGPLVEEEEKVPVRPKDPEGVPPLLVSQQAKREEERSPAAPPPLPTTSSGKAAKKPTAAEISVRVPRGPAVEGGHVNMAFSQSNPPSELHKVHGSRNKPTSLWNPTYGSWFTEKPTKKNNPIAKKEPHDRGNLGLEGSCTVPPNVATGRLPGASLLLEPSSLTANMKEVPLFRLRHFPCGNVNYGYQQQGLPLEAATAPGAGHYEDTILKSKNSMNQPGP

> <PDB ID(s) of Target Chain>
2XB7,2XBA,3AOX,5FTO,5FTQ,6E0R,6EBW,6EDL,6MX8

> <UniProt (SwissProt) Recommended Name of Target Chain>
ALK tyrosine kinase receptor

> <UniProt (SwissProt) Entry Name of Target Chain>
ALK_HUMAN

> <UniProt (SwissProt) Primary ID of Target Chain>
Q9UM73

> <UniProt (SwissProt) Secondary ID(s) of Target Chain>
Q4ZFX9,Q53QQ6,Q53RZ4,Q59FI3,Q9Y4K6

> <UniProt (SwissProt) Alternative ID(s) of Target Chain>


> <UniProt (TrEMBL) Submitted Name of Target Chain>


> <UniProt (TrEMBL) Entry Name of Target Chain>


> <UniProt (TrEMBL) Primary ID of Target Chain>


> <UniProt (TrEMBL) Secondary ID(s) of Target Chain>


> <UniProt (TrEMBL) Alternative ID(s) of Target Chain>


$$$$
00276001.cdx
  Mrv0541 10181809492D          

 34 37  0  0  0  0            999 V2000
   -3.2151    1.9115    0.0000 C   0  0  0  0  0  0  0  0  0  0  0  0
   -3.2151    1.0865    0.0000 C   0  0  0  0  0  0  0  0  0  0  0  0
   -2.5006    0.6740    0.0000 C   0  0  0  0  0  0  0  0  0  0  0  0
   -1.7862    1.0865    0.0000 C   0  0  0  0  0  0  0  0  0  0  0  0
   -1.7862    1.9115    0.0000 C   0  0  0  0  0  0  0  0  0  0  0  0
   -2.5006    2.3240    0.0000 C   0  0  0  0  0  0  0  0  0  0  0  0
   -1.0717    0.6740    0.0000 N   0  0  0  0  0  0  0  0  0  0  0  0
   -0.3572    1.0865    0.0000 C   0  0  0  0  0  0  0  0  0  0  0  0
   -0.3572    1.9115    0.0000 C   0  0  0  0  0  0  0  0  0  0  0  0
   -1.0717    2.3240    0.0000 S   0  0  0  0  0  0  0  0  0  0  0  0
   -1.0717   -0.1510    0.0000 C   0  0  0  0  0  0  0  0  0  0  0  0
    0.3572    2.3240    0.0000 C   0  0  0  0  0  0  0  0  0  0  0  0
   -0.6592    3.0385    0.0000 O   0  0  0  0  0  0  0  0  0  0  0  0
   -1.6551    2.9074    0.0000 O   0  0  0  0  0  0  0  0  0  0  0  0
   -1.7862   -0.5635    0.0000 C   0  0  0  0  0  0  0  0  0  0  0  0
   -1.7862   -1.3885    0.0000 C   0  0  0  0  0  0  0  0  0  0  0  0
   -1.0717   -1.8010    0.0000 N   0  0  0  0  0  0  0  0  0  0  0  0
   -0.3572   -1.3885    0.0000 C   0  0  0  0  0  0  0  0  0  0  0  0
   -0.3572   -0.5635    0.0000 N   0  0  0  0  0  0  0  0  0  0  0  0
   -2.5006   -0.1510    0.0000 Cl  0  0  0  0  0  0  0  0  0  0  0  0
    0.3572   -1.8010    0.0000 N   0  0  0  0  0  0  0  0  0  0  0  0
    1.0717   -1.3885    0.0000 C   0  0  0  0  0  0  0  0  0  0  0  0
    1.7862   -1.8010    0.0000 C   0  0  0  0  0  0  0  0  0  0  0  0
    2.5006   -1.3885    0.0000 C   0  0  0  0  0  0  0  0  0  0  0  0
    2.5006   -0.5635    0.0000 C   0  0  0  0  0  0  0  0  0  0  0  0
    1.7862   -0.1510    0.0000 C   0  0  0  0  0  0  0  0  0  0  0  0
    1.0717   -0.5635    0.0000 C   0  0  0  0  0  0  0  0  0  0  0  0
    1.7862   -2.6260    0.0000 O   0  0  0  0  0  0  0  0  0  0  0  0
    2.5006   -3.0385    0.0000 C   0  0  0  0  0  0  0  0  0  0  0  0
    3.2151   -0.1510    0.0000 C   0  0  0  0  0  0  0  0  0  0  0  0
    3.2151    0.6740    0.0000 C   0  0  0  0  0  0  0  0  0  0  0  0
    2.5006    1.0865    0.0000 N   0  0  0  0  0  0  0  0  0  0  0  0
    1.7862    0.6740    0.0000 C   0  0  0  0  0  0  0  0  0  0  0  0
    1.0717    1.0865    0.0000 C   0  0  0  0  0  0  0  0  0  0  0  0
  1  2  4  0  0  0  0
  2  3  4  0  0  0  0
  3  4  4  0  0  0  0
  4  5  4  0  0  0  0
  5  6  4  0  0  0  0
  6  1  4  0  0  0  0
  4  7  1  0  0  0  0
  8  9  1  0  0  0  0
  9 10  1  0  0  0  0
 10  5  1  0  0  0  0
  7 11  1  0  0  0  0
  9 12  1  0  0  0  0
 10 13  2  0  0  0  0
 10 14  2  0  0  0  0
 11 15  4  0  0  0  0
 15 16  4  0  0  0  0
 16 17  4  0  0  0  0
 17 18  4  0  0  0  0
 18 19  4  0  0  0  0
 19 11  4  0  0  0  0
 15 20  1  0  0  0  0
 18 21  1  0  0  0  0
 21 22  1  0  0  0  0
 22 23  4  0  0  0  0
 23 24  4  0  0  0  0
 24 25  4  0  0  0  0
 25 26  4  0  0  0  0
 26 27  4  0  0  0  0
 27 22  4  0  0  0  0
 23 28  1  0  0  0  0
 28 29  1  0  0  0  0
 25 30  1  0  0  0  0
 30 31  1  0  0  0  0
 31 32  1  0  0  0  0
 32 33  1  0  0  0  0
 33 26  1  0  0  0  0
 33 34  1  0  0  0  0
M  END
> <From>
www.bindingDB.org

> <BindingDB Reactant_set_id>
490450

> <Ligand InChI>
InChI=1S/C24H28ClN5O3S/c1-14(2)34(31,32)22-8-6-5-7-19(22)28-23-18(25)13-27-24(30-23)29-20-12-17-15(3)26-10-9-16(17)11-21(20)33-4/h5-8,11-15,26H,9-10H2,1-4H3,(H2,27,28,29,30)

> <Ligand InChI Key>
ZYGUBIXTHJEWAH-UHFFFAOYSA-N

> <BindingDB MonomerID>
243432

> <BindingDB Ligand Name>
5-chloro-N4-(2-(isopropylsulfonyl)phenyl)-N2-(6-methoxy-1-methyl-1,2,3,4-tetrahydroquinolin-7-yl)pyrimidine-2,4-diamine::US10053458, 46

> <Target Name Assigned by Curator or DataSource>
ALK tyrosine kinase receptor

> <Target Source Organism According to Curator or DataSource>
Homo sapiens

> <Ki (nM)>


> <IC50 (nM)>
<10.00

> <Kd (nM)>


> <EC50 (nM)>


> <kon (M-1-s-1)>


> <koff (s-1)>


> <pH>


> <Temp C>
25.00

> <Curation/DataSource>
US Patent

> <Article DOI>


> <PMID>


> <PubChem AID>


> <Patent Number>
US10053458

> <Authors>
Yun, CS; Kim, HR; Cho, SY; Jung, HJ; Lee, K; Chae, CH; Lee, CO; Park, CH; Kim, P; Hwang, JY; Ha, JD; Ahn, SJ

> <Institution>
KOREA RESEARCH INSTITUTE OF CHEMICAL TECHNOLOGY

> <Link to Ligand in BindingDB>
http://www.bindingdb.org/bind/chemsearch/marvin/MolStructure.jsp?monomerid=243432

> <Link to Ligand-Target Pair in BindingDB>
http://www.bindingdb.org/jsp/dbsearch/PrimarySearch_ki.jsp?energyterm=kJ/mole&tag=pol&polymerid=5809&target=ALK+tyrosine+kinase+receptor&column=ki&startPg=0&Increment=50&submit=Search

> <Link to Ligand-Target Pair in BindingDB>
http://www.bindingdb.org/jsp/dbsearch/PrimarySearch_ki.jsp?energyterm=kJ/mole&tag=r21&monomerid=243432&enzyme=ALK+tyrosine+kinase+receptor&column=ki&startPg=0&Increment=50&submit=Search

> <Ligand HET ID in PDB>


> <PDB ID(s) for Ligand-Target Complex>


> <PubChem CID>
129148009

> <PubChem SID>
376221812

> <ChEBI ID of Ligand>


> <ChEMBL ID of Ligand>


> <DrugBank ID of Ligand>


> <IUPHAR_GRAC ID of Ligand>


> <KEGG ID of Ligand>


> <ZINC ID of Ligand>


> <Number of Protein Chains in Target (>1 implies a multichain complex)>
1

> <BindingDB Target Chain Sequence>
MGAIGLLWLLPLLLSTAAVGSGMGTGQRAGSPAAGPPLQPREPLSYSRLQRKSLAVDFVVPSLFRVYARDLLLPPSSSELKAGRPEARGSLALDCAPLLRLLGPAPGVSWTAGSPAPAEARTLSRVLKGGSVRKLRRAKQLVLELGEEAILEGCVGPPGEAAVGLLQFNLSELFSWWIRQGEGRLRIRLMPEKKASEVGREGRLSAAIRASQPRLLFQIFGTGHSSLESPTNMPSPSPDYFTWNLTWIMKDSFPFLSHRSRYGLECSFDFPCELEYSPPLHDLRNQSWSWRRIPSEEASQMDLLDGPGAERSKEMPRGSFLLLNTSADSKHTILSPWMRSSSEHCTLAVSVHRHLQPSGRYIAQLLPHNEAAREILLMPTPGKHGWTVLQGRIGRPDNPFRVALEYISSGNRSLSAVDFFALKNCSEGTSPGSKMALQSSFTCWNGTVLQLGQACDFHQDCAQGEDESQMCRKLPVGFYCNFEDGFCGWTQGTLSPHTPQWQVRTLKDARFQDHQDHALLLSTTDVPASESATVTSATFPAPIKSSPCELRMSWLIRGVLRGNVSLVLVENKTGKEQGRMVWHVAAYEGLSLWQWMVLPLLDVSDRFWLQMVAWWGQGSRAIVAFDNISISLDCYLTISGEDKILQNTAPKSRNLFERNPNKELKPGENSPRQTPIFDPTVHWLFTTCGASGPHGPTQAQCNNAYQNSNLSVEVGSEGPLKGIQIWKVPATDTYSISGYGAAGGKGGKNTMMRSHGVSVLGIFNLEKDDMLYILVGQQGEDACPSTNQLIQKVCIGENNVIEEEIRVNRSVHEWAGGGGGGGGATYVFKMKDGVPVPLIIAAGGGGRAYGAKTDTFHPERLENNSSVLGLNGNSGAAGGGGGWNDNTSLLWAGKSLQEGATGGHSCPQAMKKWGWETRGGFGGGGGGCSSGGGGGGYIGGNAASNNDPEMDGEDGVSFISPLGILYTPALKVMEGHGEVNIKHYLNCSHCEVDECHMDPESHKVICFCDHGTVLAEDGVSCIVSPTPEPHLPLSLILSVVTSALVAALVLAFSGIMIVYRRKHQELQAMQMELQSPEYKLSKLRTSTIMTDYNPNYCFAGKTSSISDLKEVPRKNITLIRGLGHGAFGEVYEGQVSGMPNDPSPLQVAVKTLPEVCSEQDELDFLMEALIISKFNHQNIVRCIGVSLQSLPRFILLELMAGGDLKSFLRETRPRPSQPSSLAMLDLLHVARDIACGCQYLEENHFIHRDIAARNCLLTCPGPGRVAKIGDFGMARDIYRASYYRKGGCAMLPVKWMPPEAFMEGIFTSKTDTWSFGVLLWEIFSLGYMPYPSKSNQEVLEFVTSGGRMDPPKNCPGPVYRIMTQCWQHQPEDRPNFAIILERIEYCTQDPDVINTALPIEYGPLVEEEEKVPVRPKDPEGVPPLLVSQQAKREEERSPAAPPPLPTTSSGKAAKKPTAAEISVRVPRGPAVEGGHVNMAFSQSNPPSELHKVHGSRNKPTSLWNPTYGSWFTEKPTKKNNPIAKKEPHDRGNLGLEGSCTVPPNVATGRLPGASLLLEPSSLTANMKEVPLFRLRHFPCGNVNYGYQQQGLPLEAATAPGAGHYEDTILKSKNSMNQPGP

> <PDB ID(s) of Target Chain>
2XB7,2XBA,3AOX,5FTO,5FTQ,6E0R,6EBW,6EDL,6MX8

> <UniProt (SwissProt) Recommended Name of Target Chain>
ALK tyrosine kinase receptor

> <UniProt (SwissProt) Entry Name of Target Chain>
ALK_HUMAN

> <UniProt (SwissProt) Primary ID of Target Chain>
Q9UM73

> <UniProt (SwissProt) Secondary ID(s) of Target Chain>
Q4ZFX9,Q53QQ6,Q53RZ4,Q59FI3,Q9Y4K6

> <UniProt (SwissProt) Alternative ID(s) of Target Chain>


> <UniProt (TrEMBL) Submitted Name of Target Chain>


> <UniProt (TrEMBL) Entry Name of Target Chain>


> <UniProt (TrEMBL) Primary ID of Target Chain>


> <UniProt (TrEMBL) Secondary ID(s) of Target Chain>


> <UniProt (TrEMBL) Alternative ID(s) of Target Chain>


$$$$
00223001.cdx
  Mrv0541 10181809492D          

 36 39  0  0  0  0            999 V2000
   -3.5724    2.3240    0.0000 C   0  0  0  0  0  0  0  0  0  0  0  0
   -3.5724    1.4990    0.0000 C   0  0  0  0  0  0  0  0  0  0  0  0
   -2.8579    1.0865    0.0000 C   0  0  0  0  0  0  0  0  0  0  0  0
   -2.1434    1.4990    0.0000 C   0  0  0  0  0  0  0  0  0  0  0  0
   -2.1434    2.3240    0.0000 C   0  0  0  0  0  0  0  0  0  0  0  0
   -2.8579    2.7365    0.0000 C   0  0  0  0  0  0  0  0  0  0  0  0
   -1.4289    1.0865    0.0000 N   0  0  0  0  0  0  0  0  0  0  0  0
   -0.7145    1.4990    0.0000 C   0  0  0  0  0  0  0  0  0  0  0  0
   -0.7145    2.3240    0.0000 C   0  0  0  0  0  0  0  0  0  0  0  0
   -1.4289    2.7365    0.0000 S   0  0  0  0  0  0  0  0  0  0  0  0
   -1.4289    0.2615    0.0000 C   0  0  0  0  0  0  0  0  0  0  0  0
    0.0000    2.7365    0.0000 C   0  0  0  0  0  0  0  0  0  0  0  0
   -1.0164    3.4510    0.0000 O   0  0  0  0  0  0  0  0  0  0  0  0
   -2.0123    3.3199    0.0000 O   0  0  0  0  0  0  0  0  0  0  0  0
   -2.1434   -0.1510    0.0000 C   0  0  0  0  0  0  0  0  0  0  0  0
   -2.1434   -0.9760    0.0000 C   0  0  0  0  0  0  0  0  0  0  0  0
   -1.4289   -1.3885    0.0000 N   0  0  0  0  0  0  0  0  0  0  0  0
   -0.7145   -0.9760    0.0000 C   0  0  0  0  0  0  0  0  0  0  0  0
   -0.7145   -0.1510    0.0000 N   0  0  0  0  0  0  0  0  0  0  0  0
   -2.8579    0.2615    0.0000 Cl  0  0  0  0  0  0  0  0  0  0  0  0
    0.0000   -1.3885    0.0000 N   0  0  0  0  0  0  0  0  0  0  0  0
    0.7145   -0.9760    0.0000 C   0  0  0  0  0  0  0  0  0  0  0  0
    1.4289   -1.3885    0.0000 C   0  0  0  0  0  0  0  0  0  0  0  0
    2.1434   -0.9760    0.0000 C   0  0  0  0  0  0  0  0  0  0  0  0
    2.1434   -0.1510    0.0000 C   0  0  0  0  0  0  0  0  0  0  0  0
    1.4289    0.2615    0.0000 C   0  0  0  0  0  0  0  0  0  0  0  0
    0.7145   -0.1510    0.0000 C   0  0  0  0  0  0  0  0  0  0  0  0
    1.4289   -2.2135    0.0000 O   0  0  0  0  0  0  0  0  0  0  0  0
    2.1434   -2.6260    0.0000 C   0  0  0  0  0  0  0  0  0  0  0  0
    2.8579    0.2615    0.0000 C   0  0  0  0  0  0  0  0  0  0  0  0
    2.8579    1.0865    0.0000 N   0  0  0  0  0  0  0  0  0  0  0  0
    2.1434    1.4990    0.0000 C   0  0  0  0  0  0  0  0  0  0  0  0
    1.4289    1.0865    0.0000 C   0  0  0  0  0  0  0  0  0  0  0  0
    2.1434   -3.4510    0.0000 C   0  0  0  0  0  0  0  0  0  0  0  0
    2.8579   -2.2135    0.0000 C   0  0  0  0  0  0  0  0  0  0  0  0
    3.5724   -0.1510    0.0000 C   0  0  0  0  0  0  0  0  0  0  0  0
  1  2  4  0  0  0  0
  2  3  4  0  0  0  0
  3  4  4  0  0  0  0
  4  5  4  0  0  0  0
  5  6  4  0  0  0  0
  6  1  4  0  0  0  0
  4  7  1  0  0  0  0
  8  9  1  0  0  0  0
  9 10  1  0  0  0  0
 10  5  1  0  0  0  0
  7 11  1  0  0  0  0
  9 12  1  0  0  0  0
 10 13  2  0  0  0  0
 10 14  2  0  0  0  0
 11 15  4  0  0  0  0
 15 16  4  0  0  0  0
 16 17  4  0  0  0  0
 17 18  4  0  0  0  0
 18 19  4  0  0  0  0
 19 11  4  0  0  0  0
 15 20  1  0  0  0  0
 18 21  1  0  0  0  0
 21 22  1  0  0  0  0
 22 23  4  0  0  0  0
 23 24  4  0  0  0  0
 24 25  4  0  0  0  0
 25 26  4  0  0  0  0
 26 27  4  0  0  0  0
 27 22  4  0  0  0  0
 23 28  1  0  0  0  0
 28 29  1  0  0  0  0
 25 30  1  0  0  0  0
 30 31  1  0  0  0  0
 31 32  1  0  0  0  0
 32 33  1  0  0  0  0
 33 26  1  0  0  0  0
 29 34  1  0  0  0  0
 29 35  1  0  0  0  0
 30 36  1  0  0  0  0
M  END
> <From>
www.bindingDB.org

> <BindingDB Reactant_set_id>
490498

> <Ligand InChI>
InChI=1S/C26H32ClN5O3S/c1-15(2)35-23-13-19-17(5)28-11-10-18(19)12-22(23)31-26-29-14-20(27)25(32-26)30-21-8-6-7-9-24(21)36(33,34)16(3)4/h6-9,12-17,28H,10-11H2,1-5H3,(H2,29,30,31,32)

> <Ligand InChI Key>
VELNKDUOTZKDQH-UHFFFAOYSA-N

> <BindingDB MonomerID>
244010

> <BindingDB Ligand Name>
5-chloro-N4-(2-(isopropylsulfonyl)phenyl)-N2-(7-isopropoxy-1-methyl-1,2,3,4-tetrahydroisoquinolin 6 yl)pyrimidine-2,4-diamine::US10053458, 70

> <Target Name Assigned by Curator or DataSource>
ALK tyrosine kinase receptor

> <Target Source Organism According to Curator or DataSource>
Homo sapiens

> <Ki (nM)>


> <IC50 (nM)>
<10.00

> <Kd (nM)>


> <EC50 (nM)>


> <kon (M-1-s-1)>


> <koff (s-1)>


> <pH>


> <Temp C>
25.00

> <Curation/DataSource>
US Patent

> <Article DOI>


> <PMID>


> <PubChem AID>


> <Patent Number>
US10053458

> <Authors>
Yun, CS; Kim, HR; Cho, SY; Jung, HJ; Lee, K; Chae, CH; Lee, CO; Park, CH; Kim, P; Hwang, JY; Ha, JD; Ahn, SJ

> <Institution>
KOREA RESEARCH INSTITUTE OF CHEMICAL TECHNOLOGY

> <Link to Ligand in BindingDB>
http://www.bindingdb.org/bind/chemsearch/marvin/MolStructure.jsp?monomerid=244010

> <Link to Ligand-Target Pair in BindingDB>
http://www.bindingdb.org/jsp/dbsearch/PrimarySearch_ki.jsp?energyterm=kJ/mole&tag=pol&polymerid=5809&target=ALK+tyrosine+kinase+receptor&column=ki&startPg=0&Increment=50&submit=Search

> <Link to Ligand-Target Pair in BindingDB>
http://www.bindingdb.org/jsp/dbsearch/PrimarySearch_ki.jsp?energyterm=kJ/mole&tag=r21&monomerid=244010&enzyme=ALK+tyrosine+kinase+receptor&column=ki&startPg=0&Increment=50&submit=Search

> <Ligand HET ID in PDB>


> <PDB ID(s) for Ligand-Target Complex>


> <PubChem CID>
129048490

> <PubChem SID>
376221841

> <ChEBI ID of Ligand>


> <ChEMBL ID of Ligand>


> <DrugBank ID of Ligand>


> <IUPHAR_GRAC ID of Ligand>


> <KEGG ID of Ligand>


> <ZINC ID of Ligand>


> <Number of Protein Chains in Target (>1 implies a multichain complex)>
1

> <BindingDB Target Chain Sequence>
MGAIGLLWLLPLLLSTAAVGSGMGTGQRAGSPAAGPPLQPREPLSYSRLQRKSLAVDFVVPSLFRVYARDLLLPPSSSELKAGRPEARGSLALDCAPLLRLLGPAPGVSWTAGSPAPAEARTLSRVLKGGSVRKLRRAKQLVLELGEEAILEGCVGPPGEAAVGLLQFNLSELFSWWIRQGEGRLRIRLMPEKKASEVGREGRLSAAIRASQPRLLFQIFGTGHSSLESPTNMPSPSPDYFTWNLTWIMKDSFPFLSHRSRYGLECSFDFPCELEYSPPLHDLRNQSWSWRRIPSEEASQMDLLDGPGAERSKEMPRGSFLLLNTSADSKHTILSPWMRSSSEHCTLAVSVHRHLQPSGRYIAQLLPHNEAAREILLMPTPGKHGWTVLQGRIGRPDNPFRVALEYISSGNRSLSAVDFFALKNCSEGTSPGSKMALQSSFTCWNGTVLQLGQACDFHQDCAQGEDESQMCRKLPVGFYCNFEDGFCGWTQGTLSPHTPQWQVRTLKDARFQDHQDHALLLSTTDVPASESATVTSATFPAPIKSSPCELRMSWLIRGVLRGNVSLVLVENKTGKEQGRMVWHVAAYEGLSLWQWMVLPLLDVSDRFWLQMVAWWGQGSRAIVAFDNISISLDCYLTISGEDKILQNTAPKSRNLFERNPNKELKPGENSPRQTPIFDPTVHWLFTTCGASGPHGPTQAQCNNAYQNSNLSVEVGSEGPLKGIQIWKVPATDTYSISGYGAAGGKGGKNTMMRSHGVSVLGIFNLEKDDMLYILVGQQGEDACPSTNQLIQKVCIGENNVIEEEIRVNRSVHEWAGGGGGGGGATYVFKMKDGVPVPLIIAAGGGGRAYGAKTDTFHPERLENNSSVLGLNGNSGAAGGGGGWNDNTSLLWAGKSLQEGATGGHSCPQAMKKWGWETRGGFGGGGGGCSSGGGGGGYIGGNAASNNDPEMDGEDGVSFISPLGILYTPALKVMEGHGEVNIKHYLNCSHCEVDECHMDPESHKVICFCDHGTVLAEDGVSCIVSPTPEPHLPLSLILSVVTSALVAALVLAFSGIMIVYRRKHQELQAMQMELQSPEYKLSKLRTSTIMTDYNPNYCFAGKTSSISDLKEVPRKNITLIRGLGHGAFGEVYEGQVSGMPNDPSPLQVAVKTLPEVCSEQDELDFLMEALIISKFNHQNIVRCIGVSLQSLPRFILLELMAGGDLKSFLRETRPRPSQPSSLAMLDLLHVARDIACGCQYLEENHFIHRDIAARNCLLTCPGPGRVAKIGDFGMARDIYRASYYRKGGCAMLPVKWMPPEAFMEGIFTSKTDTWSFGVLLWEIFSLGYMPYPSKSNQEVLEFVTSGGRMDPPKNCPGPVYRIMTQCWQHQPEDRPNFAIILERIEYCTQDPDVINTALPIEYGPLVEEEEKVPVRPKDPEGVPPLLVSQQAKREEERSPAAPPPLPTTSSGKAAKKPTAAEISVRVPRGPAVEGGHVNMAFSQSNPPSELHKVHGSRNKPTSLWNPTYGSWFTEKPTKKNNPIAKKEPHDRGNLGLEGSCTVPPNVATGRLPGASLLLEPSSLTANMKEVPLFRLRHFPCGNVNYGYQQQGLPLEAATAPGAGHYEDTILKSKNSMNQPGP

> <PDB ID(s) of Target Chain>
2XB7,2XBA,3AOX,5FTO,5FTQ,6E0R,6EBW,6EDL,6MX8

> <UniProt (SwissProt) Recommended Name of Target Chain>
ALK tyrosine kinase receptor

> <UniProt (SwissProt) Entry Name of Target Chain>
ALK_HUMAN

> <UniProt (SwissProt) Primary ID of Target Chain>
Q9UM73

> <UniProt (SwissProt) Secondary ID(s) of Target Chain>
Q4ZFX9,Q53QQ6,Q53RZ4,Q59FI3,Q9Y4K6

> <UniProt (SwissProt) Alternative ID(s) of Target Chain>


> <UniProt (TrEMBL) Submitted Name of Target Chain>


> <UniProt (TrEMBL) Entry Name of Target Chain>


> <UniProt (TrEMBL) Primary ID of Target Chain>


> <UniProt (TrEMBL) Secondary ID(s) of Target Chain>


> <UniProt (TrEMBL) Alternative ID(s) of Target Chain>


$$$$
00224001.cdx
  Mrv0541 10181809492D          

 37 40  0  0  0  0            999 V2000
   -3.6276    2.3240    0.0000 C   0  0  0  0  0  0  0  0  0  0  0  0
   -3.6276    1.4990    0.0000 C   0  0  0  0  0  0  0  0  0  0  0  0
   -2.9131    1.0865    0.0000 C   0  0  0  0  0  0  0  0  0  0  0  0
   -2.1987    1.4990    0.0000 C   0  0  0  0  0  0  0  0  0  0  0  0
   -2.1987    2.3240    0.0000 C   0  0  0  0  0  0  0  0  0  0  0  0
   -2.9131    2.7365    0.0000 C   0  0  0  0  0  0  0  0  0  0  0  0
   -1.4842    1.0865    0.0000 N   0  0  0  0  0  0  0  0  0  0  0  0
   -0.7697    1.4990    0.0000 C   0  0  0  0  0  0  0  0  0  0  0  0
   -0.7697    2.3240    0.0000 C   0  0  0  0  0  0  0  0  0  0  0  0
   -1.4842    2.7365    0.0000 S   0  0  0  0  0  0  0  0  0  0  0  0
   -1.4842    0.2615    0.0000 C   0  0  0  0  0  0  0  0  0  0  0  0
   -0.0553    2.7365    0.0000 C   0  0  0  0  0  0  0  0  0  0  0  0
   -1.0717    3.4510    0.0000 O   0  0  0  0  0  0  0  0  0  0  0  0
   -2.0676    3.3199    0.0000 O   0  0  0  0  0  0  0  0  0  0  0  0
   -2.1987   -0.1510    0.0000 C   0  0  0  0  0  0  0  0  0  0  0  0
   -2.1987   -0.9760    0.0000 C   0  0  0  0  0  0  0  0  0  0  0  0
   -1.4842   -1.3885    0.0000 N   0  0  0  0  0  0  0  0  0  0  0  0
   -0.7697   -0.9760    0.0000 C   0  0  0  0  0  0  0  0  0  0  0  0
   -0.7697   -0.1510    0.0000 N   0  0  0  0  0  0  0  0  0  0  0  0
   -2.9131    0.2615    0.0000 Cl  0  0  0  0  0  0  0  0  0  0  0  0
   -0.0553   -1.3885    0.0000 N   0  0  0  0  0  0  0  0  0  0  0  0
    0.6592   -0.9760    0.0000 C   0  0  0  0  0  0  0  0  0  0  0  0
    1.3737   -1.3885    0.0000 C   0  0  0  0  0  0  0  0  0  0  0  0
    2.0881   -0.9760    0.0000 C   0  0  0  0  0  0  0  0  0  0  0  0
    2.0881   -0.1510    0.0000 C   0  0  0  0  0  0  0  0  0  0  0  0
    1.3737    0.2615    0.0000 C   0  0  0  0  0  0  0  0  0  0  0  0
    0.6592   -0.1510    0.0000 C   0  0  0  0  0  0  0  0  0  0  0  0
    1.3737   -2.2135    0.0000 O   0  0  0  0  0  0  0  0  0  0  0  0
    2.0881   -2.6260    0.0000 C   0  0  0  0  0  0  0  0  0  0  0  0
    2.8026    0.2615    0.0000 C   0  0  0  0  0  0  0  0  0  0  0  0
    2.8026    1.0865    0.0000 N   0  0  0  0  0  0  0  0  0  0  0  0
    2.0881    1.4990    0.0000 C   0  0  0  0  0  0  0  0  0  0  0  0
    1.3737    1.0865    0.0000 C   0  0  0  0  0  0  0  0  0  0  0  0
    2.0881   -3.4510    0.0000 C   0  0  0  0  0  0  0  0  0  0  0  0
    2.8026   -2.2135    0.0000 C   0  0  0  0  0  0  0  0  0  0  0  0
    3.3860   -0.3218    0.0000 C   0  0  0  0  0  0  0  0  0  0  0  0
    3.6276    0.2615    0.0000 C   0  0  0  0  0  0  0  0  0  0  0  0
  1  2  4  0  0  0  0
  2  3  4  0  0  0  0
  3  4  4  0  0  0  0
  4  5  4  0  0  0  0
  5  6  4  0  0  0  0
  6  1  4  0  0  0  0
  4  7  1  0  0  0  0
  8  9  1  0  0  0  0
  9 10  1  0  0  0  0
 10  5  1  0  0  0  0
  7 11  1  0  0  0  0
  9 12  1  0  0  0  0
 10 13  2  0  0  0  0
 10 14  2  0  0  0  0
 11 15  4  0  0  0  0
 15 16  4  0  0  0  0
 16 17  4  0  0  0  0
 17 18  4  0  0  0  0
 18 19  4  0  0  0  0
 19 11  4  0  0  0  0
 15 20  1  0  0  0  0
 18 21  1  0  0  0  0
 21 22  1  0  0  0  0
 22 23  4  0  0  0  0
 23 24  4  0  0  0  0
 24 25  4  0  0  0  0
 25 26  4  0  0  0  0
 26 27  4  0  0  0  0
 27 22  4  0  0  0  0
 23 28  1  0  0  0  0
 28 29  1  0  0  0  0
 25 30  1  0  0  0  0
 30 31  1  0  0  0  0
 31 32  1  0  0  0  0
 32 33  1  0  0  0  0
 33 26  1  0  0  0  0
 29 34  1  0  0  0  0
 29 35  1  0  0  0  0
 30 36  1  0  0  0  0
 30 37  1  0  0  0  0
M  END
> <From>
www.bindingDB.org

> <BindingDB Reactant_set_id>
490500

> <Ligand InChI>
InChI=1S/C27H34ClN5O3S/c1-16(2)36-23-14-19-18(11-12-30-27(19,5)6)13-22(23)32-26-29-15-20(28)25(33-26)31-21-9-7-8-10-24(21)37(34,35)17(3)4/h7-10,13-17,30H,11-12H2,1-6H3,(H2,29,31,32,33)

> <Ligand InChI Key>
SIGGALRZFGBHQT-UHFFFAOYSA-N

> <BindingDB MonomerID>
244011

> <BindingDB Ligand Name>
5-chloro-N4-(2-(isopropylsulfonyl)phenyl)-N2-(7-isopropoxy-1,1-dimethyl-1,2,3,4-tetrahydroisoquinolin-6-yl)pyrimidine-2,4-diamine::US10053458, 71

> <Target Name Assigned by Curator or DataSource>
ALK tyrosine kinase receptor

> <Target Source Organism According to Curator or DataSource>
Homo sapiens

> <Ki (nM)>


> <IC50 (nM)>
<10.00

> <Kd (nM)>


> <EC50 (nM)>


> <kon (M-1-s-1)>


> <koff (s-1)>


> <pH>


> <Temp C>
25.00

> <Curation/DataSource>
US Patent

> <Article DOI>


> <PMID>


> <PubChem AID>


> <Patent Number>
US10053458

> <Authors>
Yun, CS; Kim, HR; Cho, SY; Jung, HJ; Lee, K; Chae, CH; Lee, CO; Park, CH; Kim, P; Hwang, JY; Ha, JD; Ahn, SJ

> <Institution>
KOREA RESEARCH INSTITUTE OF CHEMICAL TECHNOLOGY

> <Link to Ligand in BindingDB>
http://www.bindingdb.org/bind/chemsearch/marvin/MolStructure.jsp?monomerid=244011

> <Link to Ligand-Target Pair in BindingDB>
http://www.bindingdb.org/jsp/dbsearch/PrimarySearch_ki.jsp?energyterm=kJ/mole&tag=pol&polymerid=5809&target=ALK+tyrosine+kinase+receptor&column=ki&startPg=0&Increment=50&submit=Search

> <Link to Ligand-Target Pair in BindingDB>
http://www.bindingdb.org/jsp/dbsearch/PrimarySearch_ki.jsp?energyterm=kJ/mole&tag=r21&monomerid=244011&enzyme=ALK+tyrosine+kinase+receptor&column=ki&startPg=0&Increment=50&submit=Search

> <Ligand HET ID in PDB>


> <PDB ID(s) for Ligand-Target Complex>


> <PubChem CID>
129048486

> <PubChem SID>
376221842

> <ChEBI ID of Ligand>


> <ChEMBL ID of Ligand>


> <DrugBank ID of Ligand>


> <IUPHAR_GRAC ID of Ligand>


> <KEGG ID of Ligand>


> <ZINC ID of Ligand>


> <Number of Protein Chains in Target (>1 implies a multichain complex)>
1

> <BindingDB Target Chain Sequence>
MGAIGLLWLLPLLLSTAAVGSGMGTGQRAGSPAAGPPLQPREPLSYSRLQRKSLAVDFVVPSLFRVYARDLLLPPSSSELKAGRPEARGSLALDCAPLLRLLGPAPGVSWTAGSPAPAEARTLSRVLKGGSVRKLRRAKQLVLELGEEAILEGCVGPPGEAAVGLLQFNLSELFSWWIRQGEGRLRIRLMPEKKASEVGREGRLSAAIRASQPRLLFQIFGTGHSSLESPTNMPSPSPDYFTWNLTWIMKDSFPFLSHRSRYGLECSFDFPCELEYSPPLHDLRNQSWSWRRIPSEEASQMDLLDGPGAERSKEMPRGSFLLLNTSADSKHTILSPWMRSSSEHCTLAVSVHRHLQPSGRYIAQLLPHNEAAREILLMPTPGKHGWTVLQGRIGRPDNPFRVALEYISSGNRSLSAVDFFALKNCSEGTSPGSKMALQSSFTCWNGTVLQLGQACDFHQDCAQGEDESQMCRKLPVGFYCNFEDGFCGWTQGTLSPHTPQWQVRTLKDARFQDHQDHALLLSTTDVPASESATVTSATFPAPIKSSPCELRMSWLIRGVLRGNVSLVLVENKTGKEQGRMVWHVAAYEGLSLWQWMVLPLLDVSDRFWLQMVAWWGQGSRAIVAFDNISISLDCYLTISGEDKILQNTAPKSRNLFERNPNKELKPGENSPRQTPIFDPTVHWLFTTCGASGPHGPTQAQCNNAYQNSNLSVEVGSEGPLKGIQIWKVPATDTYSISGYGAAGGKGGKNTMMRSHGVSVLGIFNLEKDDMLYILVGQQGEDACPSTNQLIQKVCIGENNVIEEEIRVNRSVHEWAGGGGGGGGATYVFKMKDGVPVPLIIAAGGGGRAYGAKTDTFHPERLENNSSVLGLNGNSGAAGGGGGWNDNTSLLWAGKSLQEGATGGHSCPQAMKKWGWETRGGFGGGGGGCSSGGGGGGYIGGNAASNNDPEMDGEDGVSFISPLGILYTPALKVMEGHGEVNIKHYLNCSHCEVDECHMDPESHKVICFCDHGTVLAEDGVSCIVSPTPEPHLPLSLILSVVTSALVAALVLAFSGIMIVYRRKHQELQAMQMELQSPEYKLSKLRTSTIMTDYNPNYCFAGKTSSISDLKEVPRKNITLIRGLGHGAFGEVYEGQVSGMPNDPSPLQVAVKTLPEVCSEQDELDFLMEALIISKFNHQNIVRCIGVSLQSLPRFILLELMAGGDLKSFLRETRPRPSQPSSLAMLDLLHVARDIACGCQYLEENHFIHRDIAARNCLLTCPGPGRVAKIGDFGMARDIYRASYYRKGGCAMLPVKWMPPEAFMEGIFTSKTDTWSFGVLLWEIFSLGYMPYPSKSNQEVLEFVTSGGRMDPPKNCPGPVYRIMTQCWQHQPEDRPNFAIILERIEYCTQDPDVINTALPIEYGPLVEEEEKVPVRPKDPEGVPPLLVSQQAKREEERSPAAPPPLPTTSSGKAAKKPTAAEISVRVPRGPAVEGGHVNMAFSQSNPPSELHKVHGSRNKPTSLWNPTYGSWFTEKPTKKNNPIAKKEPHDRGNLGLEGSCTVPPNVATGRLPGASLLLEPSSLTANMKEVPLFRLRHFPCGNVNYGYQQQGLPLEAATAPGAGHYEDTILKSKNSMNQPGP

> <PDB ID(s) of Target Chain>
2XB7,2XBA,3AOX,5FTO,5FTQ,6E0R,6EBW,6EDL,6MX8

> <UniProt (SwissProt) Recommended Name of Target Chain>
ALK tyrosine kinase receptor

> <UniProt (SwissProt) Entry Name of Target Chain>
ALK_HUMAN

> <UniProt (SwissProt) Primary ID of Target Chain>
Q9UM73

> <UniProt (SwissProt) Secondary ID(s) of Target Chain>
Q4ZFX9,Q53QQ6,Q53RZ4,Q59FI3,Q9Y4K6

> <UniProt (SwissProt) Alternative ID(s) of Target Chain>


> <UniProt (TrEMBL) Submitted Name of Target Chain>


> <UniProt (TrEMBL) Entry Name of Target Chain>


> <UniProt (TrEMBL) Primary ID of Target Chain>


> <UniProt (TrEMBL) Secondary ID(s) of Target Chain>


> <UniProt (TrEMBL) Alternative ID(s) of Target Chain>


$$$$
00225001.cdx
  Mrv0541 10181809492D          

 35 38  0  0  0  0            999 V2000
   -3.2151    1.9115    0.0000 C   0  0  0  0  0  0  0  0  0  0  0  0
   -3.2151    1.0865    0.0000 C   0  0  0  0  0  0  0  0  0  0  0  0
   -2.5006    0.6740    0.0000 C   0  0  0  0  0  0  0  0  0  0  0  0
   -1.7862    1.0865    0.0000 C   0  0  0  0  0  0  0  0  0  0  0  0
   -1.7862    1.9115    0.0000 C   0  0  0  0  0  0  0  0  0  0  0  0
   -2.5006    2.3240    0.0000 C   0  0  0  0  0  0  0  0  0  0  0  0
   -1.0717    0.6740    0.0000 N   0  0  0  0  0  0  0  0  0  0  0  0
   -0.3572    1.0865    0.0000 C   0  0  0  0  0  0  0  0  0  0  0  0
   -0.3572    1.9115    0.0000 C   0  0  0  0  0  0  0  0  0  0  0  0
   -1.0717    2.3240    0.0000 S   0  0  0  0  0  0  0  0  0  0  0  0
   -1.0717   -0.1510    0.0000 C   0  0  0  0  0  0  0  0  0  0  0  0
    0.3572    2.3240    0.0000 C   0  0  0  0  0  0  0  0  0  0  0  0
   -0.6592    3.0385    0.0000 O   0  0  0  0  0  0  0  0  0  0  0  0
   -1.6551    2.9074    0.0000 O   0  0  0  0  0  0  0  0  0  0  0  0
   -1.7862   -0.5635    0.0000 C   0  0  0  0  0  0  0  0  0  0  0  0
   -1.7862   -1.3885    0.0000 C   0  0  0  0  0  0  0  0  0  0  0  0
   -1.0717   -1.8010    0.0000 N   0  0  0  0  0  0  0  0  0  0  0  0
   -0.3572   -1.3885    0.0000 C   0  0  0  0  0  0  0  0  0  0  0  0
   -0.3572   -0.5635    0.0000 N   0  0  0  0  0  0  0  0  0  0  0  0
   -2.5006   -0.1510    0.0000 Cl  0  0  0  0  0  0  0  0  0  0  0  0
    0.3572   -1.8010    0.0000 N   0  0  0  0  0  0  0  0  0  0  0  0
    1.0717   -1.3885    0.0000 C   0  0  0  0  0  0  0  0  0  0  0  0
    1.7862   -1.8010    0.0000 C   0  0  0  0  0  0  0  0  0  0  0  0
    2.5006   -1.3885    0.0000 C   0  0  0  0  0  0  0  0  0  0  0  0
    2.5006   -0.5635    0.0000 C   0  0  0  0  0  0  0  0  0  0  0  0
    1.7862   -0.1510    0.0000 C   0  0  0  0  0  0  0  0  0  0  0  0
    1.0717   -0.5635    0.0000 C   0  0  0  0  0  0  0  0  0  0  0  0
    1.7862   -2.6260    0.0000 O   0  0  0  0  0  0  0  0  0  0  0  0
    2.5006   -3.0385    0.0000 C   0  0  0  0  0  0  0  0  0  0  0  0
    3.2151   -0.1510    0.0000 C   0  0  0  0  0  0  0  0  0  0  0  0
    3.2151    0.6740    0.0000 C   0  0  0  0  0  0  0  0  0  0  0  0
    2.5006    1.0865    0.0000 N   0  0  0  0  0  0  0  0  0  0  0  0
    1.7862    0.6740    0.0000 C   0  0  0  0  0  0  0  0  0  0  0  0
    0.9612    0.6740    0.0000 C   0  0  0  0  0  0  0  0  0  0  0  0
    1.5727    1.4709    0.0000 C   0  0  0  0  0  0  0  0  0  0  0  0
  1  2  4  0  0  0  0
  2  3  4  0  0  0  0
  3  4  4  0  0  0  0
  4  5  4  0  0  0  0
  5  6  4  0  0  0  0
  6  1  4  0  0  0  0
  4  7  1  0  0  0  0
  8  9  1  0  0  0  0
  9 10  1  0  0  0  0
 10  5  1  0  0  0  0
  7 11  1  0  0  0  0
  9 12  1  0  0  0  0
 10 13  2  0  0  0  0
 10 14  2  0  0  0  0
 11 15  4  0  0  0  0
 15 16  4  0  0  0  0
 16 17  4  0  0  0  0
 17 18  4  0  0  0  0
 18 19  4  0  0  0  0
 19 11  4  0  0  0  0
 15 20  1  0  0  0  0
 18 21  1  0  0  0  0
 21 22  1  0  0  0  0
 22 23  4  0  0  0  0
 23 24  4  0  0  0  0
 24 25  4  0  0  0  0
 25 26  4  0  0  0  0
 26 27  4  0  0  0  0
 27 22  4  0  0  0  0
 23 28  1  0  0  0  0
 28 29  1  0  0  0  0
 25 30  1  0  0  0  0
 30 31  1  0  0  0  0
 31 32  1  0  0  0  0
 32 33  1  0  0  0  0
 33 26  1  0  0  0  0
 33 34  1  0  0  0  0
 33 35  1  0  0  0  0
M  END
> <From>
www.bindingDB.org

> <BindingDB Reactant_set_id>
490502

> <Ligand InChI>
InChI=1S/C25H30ClN5O3S/c1-15(2)35(32,33)22-9-7-6-8-19(22)29-23-18(26)14-27-24(31-23)30-20-13-17-16(12-21(20)34-5)10-11-28-25(17,3)4/h6-9,12-15,28H,10-11H2,1-5H3,(H2,27,29,30,31)

> <Ligand InChI Key>
FAWQZWJOLLISRN-UHFFFAOYSA-N

> <BindingDB MonomerID>
244012

> <BindingDB Ligand Name>
5-chloro-N4-(2-(isopropylsulfonyl)phenyl)-N2-(6-methoxy-1,1-dimethyl-1,2,3,4-tetrahydroisoquinolin-7-yl)pyrimidine-2,4-diamine::US10053458, 72

> <Target Name Assigned by Curator or DataSource>
ALK tyrosine kinase receptor

> <Target Source Organism According to Curator or DataSource>
Homo sapiens

> <Ki (nM)>


> <IC50 (nM)>
<10.00

> <Kd (nM)>


> <EC50 (nM)>


> <kon (M-1-s-1)>


> <koff (s-1)>


> <pH>


> <Temp C>
25.00

> <Curation/DataSource>
US Patent

> <Article DOI>


> <PMID>


> <PubChem AID>


> <Patent Number>
US10053458

> <Authors>
Yun, CS; Kim, HR; Cho, SY; Jung, HJ; Lee, K; Chae, CH; Lee, CO; Park, CH; Kim, P; Hwang, JY; Ha, JD; Ahn, SJ

> <Institution>
KOREA RESEARCH INSTITUTE OF CHEMICAL TECHNOLOGY

> <Link to Ligand in BindingDB>
http://www.bindingdb.org/bind/chemsearch/marvin/MolStructure.jsp?monomerid=244012

> <Link to Ligand-Target Pair in BindingDB>
http://www.bindingdb.org/jsp/dbsearch/PrimarySearch_ki.jsp?energyterm=kJ/mole&tag=pol&polymerid=5809&target=ALK+tyrosine+kinase+receptor&column=ki&startPg=0&Increment=50&submit=Search

> <Link to Ligand-Target Pair in BindingDB>
http://www.bindingdb.org/jsp/dbsearch/PrimarySearch_ki.jsp?energyterm=kJ/mole&tag=r21&monomerid=244012&enzyme=ALK+tyrosine+kinase+receptor&column=ki&startPg=0&Increment=50&submit=Search

> <Ligand HET ID in PDB>


> <PDB ID(s) for Ligand-Target Complex>


> <PubChem CID>
129048562

> <PubChem SID>
376221843

> <ChEBI ID of Ligand>


> <ChEMBL ID of Ligand>


> <DrugBank ID of Ligand>


> <IUPHAR_GRAC ID of Ligand>


> <KEGG ID of Ligand>


> <ZINC ID of Ligand>


> <Number of Protein Chains in Target (>1 implies a multichain complex)>
1

> <BindingDB Target Chain Sequence>
MGAIGLLWLLPLLLSTAAVGSGMGTGQRAGSPAAGPPLQPREPLSYSRLQRKSLAVDFVVPSLFRVYARDLLLPPSSSELKAGRPEARGSLALDCAPLLRLLGPAPGVSWTAGSPAPAEARTLSRVLKGGSVRKLRRAKQLVLELGEEAILEGCVGPPGEAAVGLLQFNLSELFSWWIRQGEGRLRIRLMPEKKASEVGREGRLSAAIRASQPRLLFQIFGTGHSSLESPTNMPSPSPDYFTWNLTWIMKDSFPFLSHRSRYGLECSFDFPCELEYSPPLHDLRNQSWSWRRIPSEEASQMDLLDGPGAERSKEMPRGSFLLLNTSADSKHTILSPWMRSSSEHCTLAVSVHRHLQPSGRYIAQLLPHNEAAREILLMPTPGKHGWTVLQGRIGRPDNPFRVALEYISSGNRSLSAVDFFALKNCSEGTSPGSKMALQSSFTCWNGTVLQLGQACDFHQDCAQGEDESQMCRKLPVGFYCNFEDGFCGWTQGTLSPHTPQWQVRTLKDARFQDHQDHALLLSTTDVPASESATVTSATFPAPIKSSPCELRMSWLIRGVLRGNVSLVLVENKTGKEQGRMVWHVAAYEGLSLWQWMVLPLLDVSDRFWLQMVAWWGQGSRAIVAFDNISISLDCYLTISGEDKILQNTAPKSRNLFERNPNKELKPGENSPRQTPIFDPTVHWLFTTCGASGPHGPTQAQCNNAYQNSNLSVEVGSEGPLKGIQIWKVPATDTYSISGYGAAGGKGGKNTMMRSHGVSVLGIFNLEKDDMLYILVGQQGEDACPSTNQLIQKVCIGENNVIEEEIRVNRSVHEWAGGGGGGGGATYVFKMKDGVPVPLIIAAGGGGRAYGAKTDTFHPERLENNSSVLGLNGNSGAAGGGGGWNDNTSLLWAGKSLQEGATGGHSCPQAMKKWGWETRGGFGGGGGGCSSGGGGGGYIGGNAASNNDPEMDGEDGVSFISPLGILYTPALKVMEGHGEVNIKHYLNCSHCEVDECHMDPESHKVICFCDHGTVLAEDGVSCIVSPTPEPHLPLSLILSVVTSALVAALVLAFSGIMIVYRRKHQELQAMQMELQSPEYKLSKLRTSTIMTDYNPNYCFAGKTSSISDLKEVPRKNITLIRGLGHGAFGEVYEGQVSGMPNDPSPLQVAVKTLPEVCSEQDELDFLMEALIISKFNHQNIVRCIGVSLQSLPRFILLELMAGGDLKSFLRETRPRPSQPSSLAMLDLLHVARDIACGCQYLEENHFIHRDIAARNCLLTCPGPGRVAKIGDFGMARDIYRASYYRKGGCAMLPVKWMPPEAFMEGIFTSKTDTWSFGVLLWEIFSLGYMPYPSKSNQEVLEFVTSGGRMDPPKNCPGPVYRIMTQCWQHQPEDRPNFAIILERIEYCTQDPDVINTALPIEYGPLVEEEEKVPVRPKDPEGVPPLLVSQQAKREEERSPAAPPPLPTTSSGKAAKKPTAAEISVRVPRGPAVEGGHVNMAFSQSNPPSELHKVHGSRNKPTSLWNPTYGSWFTEKPTKKNNPIAKKEPHDRGNLGLEGSCTVPPNVATGRLPGASLLLEPSSLTANMKEVPLFRLRHFPCGNVNYGYQQQGLPLEAATAPGAGHYEDTILKSKNSMNQPGP

> <PDB ID(s) of Target Chain>
2XB7,2XBA,3AOX,5FTO,5FTQ,6E0R,6EBW,6EDL,6MX8

> <UniProt (SwissProt) Recommended Name of Target Chain>
ALK tyrosine kinase receptor

> <UniProt (SwissProt) Entry Name of Target Chain>
ALK_HUMAN

> <UniProt (SwissProt) Primary ID of Target Chain>
Q9UM73

> <UniProt (SwissProt) Secondary ID(s) of Target Chain>
Q4ZFX9,Q53QQ6,Q53RZ4,Q59FI3,Q9Y4K6

> <UniProt (SwissProt) Alternative ID(s) of Target Chain>


> <UniProt (TrEMBL) Submitted Name of Target Chain>


> <UniProt (TrEMBL) Entry Name of Target Chain>


> <UniProt (TrEMBL) Primary ID of Target Chain>


> <UniProt (TrEMBL) Secondary ID(s) of Target Chain>


> <UniProt (TrEMBL) Alternative ID(s) of Target Chain>


$$$$
00226001.cdx
  Mrv0541 10181809492D          

 36 39  0  0  0  0            999 V2000
   -3.9052    1.9115    0.0000 C   0  0  0  0  0  0  0  0  0  0  0  0
   -3.9052    1.0865    0.0000 C   0  0  0  0  0  0  0  0  0  0  0  0
   -3.1908    0.6740    0.0000 C   0  0  0  0  0  0  0  0  0  0  0  0
   -2.4763    1.0865    0.0000 C   0  0  0  0  0  0  0  0  0  0  0  0
   -2.4763    1.9115    0.0000 C   0  0  0  0  0  0  0  0  0  0  0  0
   -3.1908    2.3240    0.0000 C   0  0  0  0  0  0  0  0  0  0  0  0
   -1.7618    0.6740    0.0000 N   0  0  0  0  0  0  0  0  0  0  0  0
   -1.0474    1.0865    0.0000 C   0  0  0  0  0  0  0  0  0  0  0  0
   -1.0474    1.9115    0.0000 C   0  0  0  0  0  0  0  0  0  0  0  0
   -1.7618    2.3240    0.0000 S   0  0  0  0  0  0  0  0  0  0  0  0
   -1.7618   -0.1510    0.0000 C   0  0  0  0  0  0  0  0  0  0  0  0
   -0.3329    2.3240    0.0000 C   0  0  0  0  0  0  0  0  0  0  0  0
   -1.3493    3.0385    0.0000 O   0  0  0  0  0  0  0  0  0  0  0  0
   -2.3452    2.9074    0.0000 O   0  0  0  0  0  0  0  0  0  0  0  0
   -2.4763   -0.5635    0.0000 C   0  0  0  0  0  0  0  0  0  0  0  0
   -2.4763   -1.3885    0.0000 C   0  0  0  0  0  0  0  0  0  0  0  0
   -1.7618   -1.8010    0.0000 N   0  0  0  0  0  0  0  0  0  0  0  0
   -1.0474   -1.3885    0.0000 C   0  0  0  0  0  0  0  0  0  0  0  0
   -1.0474   -0.5635    0.0000 N   0  0  0  0  0  0  0  0  0  0  0  0
   -3.1908   -0.1510    0.0000 Cl  0  0  0  0  0  0  0  0  0  0  0  0
   -0.3329   -1.8010    0.0000 N   0  0  0  0  0  0  0  0  0  0  0  0
    0.3816   -1.3885    0.0000 C   0  0  0  0  0  0  0  0  0  0  0  0
    1.0961   -1.8010    0.0000 C   0  0  0  0  0  0  0  0  0  0  0  0
    1.8105   -1.3885    0.0000 C   0  0  0  0  0  0  0  0  0  0  0  0
    1.8105   -0.5635    0.0000 C   0  0  0  0  0  0  0  0  0  0  0  0
    1.0961   -0.1510    0.0000 C   0  0  0  0  0  0  0  0  0  0  0  0
    0.3816   -0.5635    0.0000 C   0  0  0  0  0  0  0  0  0  0  0  0
    1.0961   -2.6260    0.0000 O   0  0  0  0  0  0  0  0  0  0  0  0
    1.8105   -3.0385    0.0000 C   0  0  0  0  0  0  0  0  0  0  0  0
    2.5250   -0.1510    0.0000 C   0  0  0  0  0  0  0  0  0  0  0  0
    2.5250    0.6740    0.0000 N   0  0  0  0  0  0  0  0  0  0  0  0
    1.8105    1.0865    0.0000 C   0  0  0  0  0  0  0  0  0  0  0  0
    1.0961    0.6740    0.0000 C   0  0  0  0  0  0  0  0  0  0  0  0
    2.9375   -0.8655    0.0000 C   0  0  0  0  0  0  0  0  0  0  0  0
    3.3219    0.0625    0.0000 C   0  0  0  0  0  0  0  0  0  0  0  0
    3.9052   -0.5208    0.0000 C   0  0  0  0  0  0  0  0  0  0  0  0
  1  2  4  0  0  0  0
  2  3  4  0  0  0  0
  3  4  4  0  0  0  0
  4  5  4  0  0  0  0
  5  6  4  0  0  0  0
  6  1  4  0  0  0  0
  4  7  1  0  0  0  0
  8  9  1  0  0  0  0
  9 10  1  0  0  0  0
 10  5  1  0  0  0  0
  7 11  1  0  0  0  0
  9 12  1  0  0  0  0
 10 13  2  0  0  0  0
 10 14  2  0  0  0  0
 11 15  4  0  0  0  0
 15 16  4  0  0  0  0
 16 17  4  0  0  0  0
 17 18  4  0  0  0  0
 18 19  4  0  0  0  0
 19 11  4  0  0  0  0
 15 20  1  0  0  0  0
 18 21  1  0  0  0  0
 21 22  1  0  0  0  0
 22 23  4  0  0  0  0
 23 24  4  0  0  0  0
 24 25  4  0  0  0  0
 25 26  4  0  0  0  0
 26 27  4  0  0  0  0
 27 22  4  0  0  0  0
 23 28  1  0  0  0  0
 28 29  1  0  0  0  0
 25 30  1  0  0  0  0
 30 31  1  0  0  0  0
 31 32  1  0  0  0  0
 32 33  1  0  0  0  0
 33 26  1  0  0  0  0
 30 34  1  0  0  0  0
 30 35  1  0  0  0  0
 35 36  1  0  0  0  0
M  END
> <From>
www.bindingDB.org

> <BindingDB Reactant_set_id>
490504

> <Ligand InChI>
InChI=1S/C26H32ClN5O3S/c1-6-26(4)18-14-22(35-5)21(13-17(18)11-12-29-26)31-25-28-15-19(27)24(32-25)30-20-9-7-8-10-23(20)36(33,34)16(2)3/h7-10,13-16,29H,6,11-12H2,1-5H3,(H2,28,30,31,32)

> <Ligand InChI Key>
NVWLOTOCZPTCKH-UHFFFAOYSA-N

> <BindingDB MonomerID>
244013

> <BindingDB Ligand Name>
5-chloro-N4-(2-(isopropylsulfonyl)phenyl)-N2-(l-ethyl-7-methoxy-1-methyl-1,2,3,4-tetrahydroisoquinolin-6-yl)pyrimidine-2,4-diamine::US10053458, 73

> <Target Name Assigned by Curator or DataSource>
ALK tyrosine kinase receptor

> <Target Source Organism According to Curator or DataSource>
Homo sapiens

> <Ki (nM)>


> <IC50 (nM)>
<10.00

> <Kd (nM)>


> <EC50 (nM)>


> <kon (M-1-s-1)>


> <koff (s-1)>


> <pH>


> <Temp C>
25.00

> <Curation/DataSource>
US Patent

> <Article DOI>


> <PMID>


> <PubChem AID>


> <Patent Number>
US10053458

> <Authors>
Yun, CS; Kim, HR; Cho, SY; Jung, HJ; Lee, K; Chae, CH; Lee, CO; Park, CH; Kim, P; Hwang, JY; Ha, JD; Ahn, SJ

> <Institution>
KOREA RESEARCH INSTITUTE OF CHEMICAL TECHNOLOGY

> <Link to Ligand in BindingDB>
http://www.bindingdb.org/bind/chemsearch/marvin/MolStructure.jsp?monomerid=244013

> <Link to Ligand-Target Pair in BindingDB>
http://www.bindingdb.org/jsp/dbsearch/PrimarySearch_ki.jsp?energyterm=kJ/mole&tag=pol&polymerid=5809&target=ALK+tyrosine+kinase+receptor&column=ki&startPg=0&Increment=50&submit=Search

> <Link to Ligand-Target Pair in BindingDB>
http://www.bindingdb.org/jsp/dbsearch/PrimarySearch_ki.jsp?energyterm=kJ/mole&tag=r21&monomerid=244013&enzyme=ALK+tyrosine+kinase+receptor&column=ki&startPg=0&Increment=50&submit=Search

> <Ligand HET ID in PDB>


> <PDB ID(s) for Ligand-Target Complex>


> <PubChem CID>
129048487

> <PubChem SID>
376221844

> <ChEBI ID of Ligand>


> <ChEMBL ID of Ligand>


> <DrugBank ID of Ligand>


> <IUPHAR_GRAC ID of Ligand>


> <KEGG ID of Ligand>


> <ZINC ID of Ligand>


> <Number of Protein Chains in Target (>1 implies a multichain complex)>
1

> <BindingDB Target Chain Sequence>
MGAIGLLWLLPLLLSTAAVGSGMGTGQRAGSPAAGPPLQPREPLSYSRLQRKSLAVDFVVPSLFRVYARDLLLPPSSSELKAGRPEARGSLALDCAPLLRLLGPAPGVSWTAGSPAPAEARTLSRVLKGGSVRKLRRAKQLVLELGEEAILEGCVGPPGEAAVGLLQFNLSELFSWWIRQGEGRLRIRLMPEKKASEVGREGRLSAAIRASQPRLLFQIFGTGHSSLESPTNMPSPSPDYFTWNLTWIMKDSFPFLSHRSRYGLECSFDFPCELEYSPPLHDLRNQSWSWRRIPSEEASQMDLLDGPGAERSKEMPRGSFLLLNTSADSKHTILSPWMRSSSEHCTLAVSVHRHLQPSGRYIAQLLPHNEAAREILLMPTPGKHGWTVLQGRIGRPDNPFRVALEYISSGNRSLSAVDFFALKNCSEGTSPGSKMALQSSFTCWNGTVLQLGQACDFHQDCAQGEDESQMCRKLPVGFYCNFEDGFCGWTQGTLSPHTPQWQVRTLKDARFQDHQDHALLLSTTDVPASESATVTSATFPAPIKSSPCELRMSWLIRGVLRGNVSLVLVENKTGKEQGRMVWHVAAYEGLSLWQWMVLPLLDVSDRFWLQMVAWWGQGSRAIVAFDNISISLDCYLTISGEDKILQNTAPKSRNLFERNPNKELKPGENSPRQTPIFDPTVHWLFTTCGASGPHGPTQAQCNNAYQNSNLSVEVGSEGPLKGIQIWKVPATDTYSISGYGAAGGKGGKNTMMRSHGVSVLGIFNLEKDDMLYILVGQQGEDACPSTNQLIQKVCIGENNVIEEEIRVNRSVHEWAGGGGGGGGATYVFKMKDGVPVPLIIAAGGGGRAYGAKTDTFHPERLENNSSVLGLNGNSGAAGGGGGWNDNTSLLWAGKSLQEGATGGHSCPQAMKKWGWETRGGFGGGGGGCSSGGGGGGYIGGNAASNNDPEMDGEDGVSFISPLGILYTPALKVMEGHGEVNIKHYLNCSHCEVDECHMDPESHKVICFCDHGTVLAEDGVSCIVSPTPEPHLPLSLILSVVTSALVAALVLAFSGIMIVYRRKHQELQAMQMELQSPEYKLSKLRTSTIMTDYNPNYCFAGKTSSISDLKEVPRKNITLIRGLGHGAFGEVYEGQVSGMPNDPSPLQVAVKTLPEVCSEQDELDFLMEALIISKFNHQNIVRCIGVSLQSLPRFILLELMAGGDLKSFLRETRPRPSQPSSLAMLDLLHVARDIACGCQYLEENHFIHRDIAARNCLLTCPGPGRVAKIGDFGMARDIYRASYYRKGGCAMLPVKWMPPEAFMEGIFTSKTDTWSFGVLLWEIFSLGYMPYPSKSNQEVLEFVTSGGRMDPPKNCPGPVYRIMTQCWQHQPEDRPNFAIILERIEYCTQDPDVINTALPIEYGPLVEEEEKVPVRPKDPEGVPPLLVSQQAKREEERSPAAPPPLPTTSSGKAAKKPTAAEISVRVPRGPAVEGGHVNMAFSQSNPPSELHKVHGSRNKPTSLWNPTYGSWFTEKPTKKNNPIAKKEPHDRGNLGLEGSCTVPPNVATGRLPGASLLLEPSSLTANMKEVPLFRLRHFPCGNVNYGYQQQGLPLEAATAPGAGHYEDTILKSKNSMNQPGP

> <PDB ID(s) of Target Chain>
2XB7,2XBA,3AOX,5FTO,5FTQ,6E0R,6EBW,6EDL,6MX8

> <UniProt (SwissProt) Recommended Name of Target Chain>
ALK tyrosine kinase receptor

> <UniProt (SwissProt) Entry Name of Target Chain>
ALK_HUMAN

> <UniProt (SwissProt) Primary ID of Target Chain>
Q9UM73

> <UniProt (SwissProt) Secondary ID(s) of Target Chain>
Q4ZFX9,Q53QQ6,Q53RZ4,Q59FI3,Q9Y4K6

> <UniProt (SwissProt) Alternative ID(s) of Target Chain>


> <UniProt (TrEMBL) Submitted Name of Target Chain>


> <UniProt (TrEMBL) Entry Name of Target Chain>


> <UniProt (TrEMBL) Primary ID of Target Chain>


> <UniProt (TrEMBL) Secondary ID(s) of Target Chain>


> <UniProt (TrEMBL) Alternative ID(s) of Target Chain>


$$$$
00231001.cdx
  Mrv0541 10181809492D          

 37 40  0  0  0  0            999 V2000
   -3.9708    1.9115    0.0000 C   0  0  0  0  0  0  0  0  0  0  0  0
   -3.9708    1.0865    0.0000 C   0  0  0  0  0  0  0  0  0  0  0  0
   -3.2563    0.6740    0.0000 C   0  0  0  0  0  0  0  0  0  0  0  0
   -2.5419    1.0865    0.0000 C   0  0  0  0  0  0  0  0  0  0  0  0
   -2.5419    1.9115    0.0000 C   0  0  0  0  0  0  0  0  0  0  0  0
   -3.2563    2.3240    0.0000 C   0  0  0  0  0  0  0  0  0  0  0  0
   -1.8274    0.6740    0.0000 N   0  0  0  0  0  0  0  0  0  0  0  0
   -1.1129    1.0865    0.0000 C   0  0  0  0  0  0  0  0  0  0  0  0
   -1.1129    1.9115    0.0000 C   0  0  0  0  0  0  0  0  0  0  0  0
   -1.8274    2.3240    0.0000 S   0  0  0  0  0  0  0  0  0  0  0  0
   -1.8274   -0.1510    0.0000 C   0  0  0  0  0  0  0  0  0  0  0  0
   -0.3984    2.3240    0.0000 C   0  0  0  0  0  0  0  0  0  0  0  0
   -1.4149    3.0385    0.0000 O   0  0  0  0  0  0  0  0  0  0  0  0
   -2.4108    2.9074    0.0000 O   0  0  0  0  0  0  0  0  0  0  0  0
   -2.5419   -0.5635    0.0000 C   0  0  0  0  0  0  0  0  0  0  0  0
   -2.5419   -1.3885    0.0000 C   0  0  0  0  0  0  0  0  0  0  0  0
   -1.8274   -1.8010    0.0000 N   0  0  0  0  0  0  0  0  0  0  0  0
   -1.1129   -1.3885    0.0000 C   0  0  0  0  0  0  0  0  0  0  0  0
   -1.1129   -0.5635    0.0000 N   0  0  0  0  0  0  0  0  0  0  0  0
   -3.2563   -0.1510    0.0000 Cl  0  0  0  0  0  0  0  0  0  0  0  0
   -0.3984   -1.8010    0.0000 N   0  0  0  0  0  0  0  0  0  0  0  0
    0.3160   -1.3885    0.0000 C   0  0  0  0  0  0  0  0  0  0  0  0
    1.0305   -1.8010    0.0000 C   0  0  0  0  0  0  0  0  0  0  0  0
    1.7450   -1.3885    0.0000 C   0  0  0  0  0  0  0  0  0  0  0  0
    1.7450   -0.5635    0.0000 C   0  0  0  0  0  0  0  0  0  0  0  0
    1.0305   -0.1510    0.0000 C   0  0  0  0  0  0  0  0  0  0  0  0
    0.3160   -0.5635    0.0000 C   0  0  0  0  0  0  0  0  0  0  0  0
    1.0305   -2.6260    0.0000 O   0  0  0  0  0  0  0  0  0  0  0  0
    1.7450   -3.0385    0.0000 C   0  0  0  0  0  0  0  0  0  0  0  0
    2.4594   -0.1510    0.0000 C   0  0  0  0  0  0  0  0  0  0  0  0
    2.4594    0.6740    0.0000 N   0  0  0  0  0  0  0  0  0  0  0  0
    1.7450    1.0865    0.0000 C   0  0  0  0  0  0  0  0  0  0  0  0
    1.0305    0.6740    0.0000 C   0  0  0  0  0  0  0  0  0  0  0  0
    2.6730   -0.9479    0.0000 C   0  0  0  0  0  0  0  0  0  0  0  0
    3.2563    0.0625    0.0000 C   0  0  0  0  0  0  0  0  0  0  0  0
    3.9708   -0.3500    0.0000 C   0  0  0  0  0  0  0  0  0  0  0  0
    3.3874   -1.3604    0.0000 C   0  0  0  0  0  0  0  0  0  0  0  0
  1  2  4  0  0  0  0
  2  3  4  0  0  0  0
  3  4  4  0  0  0  0
  4  5  4  0  0  0  0
  5  6  4  0  0  0  0
  6  1  4  0  0  0  0
  4  7  1  0  0  0  0
  8  9  1  0  0  0  0
  9 10  1  0  0  0  0
 10  5  1  0  0  0  0
  7 11  1  0  0  0  0
  9 12  1  0  0  0  0
 10 13  2  0  0  0  0
 10 14  2  0  0  0  0
 11 15  4  0  0  0  0
 15 16  4  0  0  0  0
 16 17  4  0  0  0  0
 17 18  4  0  0  0  0
 18 19  4  0  0  0  0
 19 11  4  0  0  0  0
 15 20  1  0  0  0  0
 18 21  1  0  0  0  0
 21 22  1  0  0  0  0
 22 23  4  0  0  0  0
 23 24  4  0  0  0  0
 24 25  4  0  0  0  0
 25 26  4  0  0  0  0
 26 27  4  0  0  0  0
 27 22  4  0  0  0  0
 23 28  1  0  0  0  0
 28 29  1  0  0  0  0
 25 30  1  0  0  0  0
 30 31  1  0  0  0  0
 31 32  1  0  0  0  0
 32 33  1  0  0  0  0
 33 26  1  0  0  0  0
 30 34  1  0  0  0  0
 30 35  1  0  0  0  0
 35 36  1  0  0  0  0
 34 37  1  0  0  0  0
M  END
> <From>
www.bindingDB.org

> <BindingDB Reactant_set_id>
490506

> <Ligand InChI>
InChI=1S/C27H34ClN5O3S/c1-6-27(7-2)19-15-23(36-5)22(14-18(19)12-13-30-27)32-26-29-16-20(28)25(33-26)31-21-10-8-9-11-24(21)37(34,35)17(3)4/h8-11,14-17,30H,6-7,12-13H2,1-5H3,(H2,29,31,32,33)

> <Ligand InChI Key>
KWNWMQHJQGJKIG-UHFFFAOYSA-N

> <BindingDB MonomerID>
244014

> <BindingDB Ligand Name>
5-chloro-N4-(2-(isopropylsulfonyl)phenyl)-N2-(1,1-diethyl-7-methoxy-1,2,3,4-tetrahydroisoquinolin-6-yl)pyrimidine-2,4-diamine::US10053458, 74

> <Target Name Assigned by Curator or DataSource>
ALK tyrosine kinase receptor

> <Target Source Organism According to Curator or DataSource>
Homo sapiens

> <Ki (nM)>


> <IC50 (nM)>
<10.00

> <Kd (nM)>


> <EC50 (nM)>


> <kon (M-1-s-1)>


> <koff (s-1)>


> <pH>


> <Temp C>
25.00

> <Curation/DataSource>
US Patent

> <Article DOI>


> <PMID>


> <PubChem AID>


> <Patent Number>
US10053458

> <Authors>
Yun, CS; Kim, HR; Cho, SY; Jung, HJ; Lee, K; Chae, CH; Lee, CO; Park, CH; Kim, P; Hwang, JY; Ha, JD; Ahn, SJ

> <Institution>
KOREA RESEARCH INSTITUTE OF CHEMICAL TECHNOLOGY

> <Link to Ligand in BindingDB>
http://www.bindingdb.org/bind/chemsearch/marvin/MolStructure.jsp?monomerid=244014

> <Link to Ligand-Target Pair in BindingDB>
http://www.bindingdb.org/jsp/dbsearch/PrimarySearch_ki.jsp?energyterm=kJ/mole&tag=pol&polymerid=5809&target=ALK+tyrosine+kinase+receptor&column=ki&startPg=0&Increment=50&submit=Search

> <Link to Ligand-Target Pair in BindingDB>
http://www.bindingdb.org/jsp/dbsearch/PrimarySearch_ki.jsp?energyterm=kJ/mole&tag=r21&monomerid=244014&enzyme=ALK+tyrosine+kinase+receptor&column=ki&startPg=0&Increment=50&submit=Search

> <Ligand HET ID in PDB>


> <PDB ID(s) for Ligand-Target Complex>


> <PubChem CID>
129048462

> <PubChem SID>
376221845

> <ChEBI ID of Ligand>


> <ChEMBL ID of Ligand>


> <DrugBank ID of Ligand>


> <IUPHAR_GRAC ID of Ligand>


> <KEGG ID of Ligand>


> <ZINC ID of Ligand>


> <Number of Protein Chains in Target (>1 implies a multichain complex)>
1

> <BindingDB Target Chain Sequence>
MGAIGLLWLLPLLLSTAAVGSGMGTGQRAGSPAAGPPLQPREPLSYSRLQRKSLAVDFVVPSLFRVYARDLLLPPSSSELKAGRPEARGSLALDCAPLLRLLGPAPGVSWTAGSPAPAEARTLSRVLKGGSVRKLRRAKQLVLELGEEAILEGCVGPPGEAAVGLLQFNLSELFSWWIRQGEGRLRIRLMPEKKASEVGREGRLSAAIRASQPRLLFQIFGTGHSSLESPTNMPSPSPDYFTWNLTWIMKDSFPFLSHRSRYGLECSFDFPCELEYSPPLHDLRNQSWSWRRIPSEEASQMDLLDGPGAERSKEMPRGSFLLLNTSADSKHTILSPWMRSSSEHCTLAVSVHRHLQPSGRYIAQLLPHNEAAREILLMPTPGKHGWTVLQGRIGRPDNPFRVALEYISSGNRSLSAVDFFALKNCSEGTSPGSKMALQSSFTCWNGTVLQLGQACDFHQDCAQGEDESQMCRKLPVGFYCNFEDGFCGWTQGTLSPHTPQWQVRTLKDARFQDHQDHALLLSTTDVPASESATVTSATFPAPIKSSPCELRMSWLIRGVLRGNVSLVLVENKTGKEQGRMVWHVAAYEGLSLWQWMVLPLLDVSDRFWLQMVAWWGQGSRAIVAFDNISISLDCYLTISGEDKILQNTAPKSRNLFERNPNKELKPGENSPRQTPIFDPTVHWLFTTCGASGPHGPTQAQCNNAYQNSNLSVEVGSEGPLKGIQIWKVPATDTYSISGYGAAGGKGGKNTMMRSHGVSVLGIFNLEKDDMLYILVGQQGEDACPSTNQLIQKVCIGENNVIEEEIRVNRSVHEWAGGGGGGGGATYVFKMKDGVPVPLIIAAGGGGRAYGAKTDTFHPERLENNSSVLGLNGNSGAAGGGGGWNDNTSLLWAGKSLQEGATGGHSCPQAMKKWGWETRGGFGGGGGGCSSGGGGGGYIGGNAASNNDPEMDGEDGVSFISPLGILYTPALKVMEGHGEVNIKHYLNCSHCEVDECHMDPESHKVICFCDHGTVLAEDGVSCIVSPTPEPHLPLSLILSVVTSALVAALVLAFSGIMIVYRRKHQELQAMQMELQSPEYKLSKLRTSTIMTDYNPNYCFAGKTSSISDLKEVPRKNITLIRGLGHGAFGEVYEGQVSGMPNDPSPLQVAVKTLPEVCSEQDELDFLMEALIISKFNHQNIVRCIGVSLQSLPRFILLELMAGGDLKSFLRETRPRPSQPSSLAMLDLLHVARDIACGCQYLEENHFIHRDIAARNCLLTCPGPGRVAKIGDFGMARDIYRASYYRKGGCAMLPVKWMPPEAFMEGIFTSKTDTWSFGVLLWEIFSLGYMPYPSKSNQEVLEFVTSGGRMDPPKNCPGPVYRIMTQCWQHQPEDRPNFAIILERIEYCTQDPDVINTALPIEYGPLVEEEEKVPVRPKDPEGVPPLLVSQQAKREEERSPAAPPPLPTTSSGKAAKKPTAAEISVRVPRGPAVEGGHVNMAFSQSNPPSELHKVHGSRNKPTSLWNPTYGSWFTEKPTKKNNPIAKKEPHDRGNLGLEGSCTVPPNVATGRLPGASLLLEPSSLTANMKEVPLFRLRHFPCGNVNYGYQQQGLPLEAATAPGAGHYEDTILKSKNSMNQPGP

> <PDB ID(s) of Target Chain>
2XB7,2XBA,3AOX,5FTO,5FTQ,6E0R,6EBW,6EDL,6MX8

> <UniProt (SwissProt) Recommended Name of Target Chain>
ALK tyrosine kinase receptor

> <UniProt (SwissProt) Entry Name of Target Chain>
ALK_HUMAN

> <UniProt (SwissProt) Primary ID of Target Chain>
Q9UM73

> <UniProt (SwissProt) Secondary ID(s) of Target Chain>
Q4ZFX9,Q53QQ6,Q53RZ4,Q59FI3,Q9Y4K6

> <UniProt (SwissProt) Alternative ID(s) of Target Chain>


> <UniProt (TrEMBL) Submitted Name of Target Chain>


> <UniProt (TrEMBL) Entry Name of Target Chain>


> <UniProt (TrEMBL) Primary ID of Target Chain>


> <UniProt (TrEMBL) Secondary ID(s) of Target Chain>


> <UniProt (TrEMBL) Alternative ID(s) of Target Chain>


$$$$
00232001.cdx
  Mrv0541 10181809492D          

 35 38  0  0  0  0            999 V2000
   -3.6276    1.9115    0.0000 C   0  0  0  0  0  0  0  0  0  0  0  0
   -3.6276    1.0865    0.0000 C   0  0  0  0  0  0  0  0  0  0  0  0
   -2.9131    0.6740    0.0000 C   0  0  0  0  0  0  0  0  0  0  0  0
   -2.1987    1.0865    0.0000 C   0  0  0  0  0  0  0  0  0  0  0  0
   -2.1987    1.9115    0.0000 C   0  0  0  0  0  0  0  0  0  0  0  0
   -2.9131    2.3240    0.0000 C   0  0  0  0  0  0  0  0  0  0  0  0
   -1.4842    0.6740    0.0000 N   0  0  0  0  0  0  0  0  0  0  0  0
   -0.7697    1.0865    0.0000 C   0  0  0  0  0  0  0  0  0  0  0  0
   -0.7697    1.9115    0.0000 C   0  0  0  0  0  0  0  0  0  0  0  0
   -1.4842    2.3240    0.0000 S   0  0  0  0  0  0  0  0  0  0  0  0
   -1.4842   -0.1510    0.0000 C   0  0  0  0  0  0  0  0  0  0  0  0
   -0.0553    2.3240    0.0000 C   0  0  0  0  0  0  0  0  0  0  0  0
   -1.0717    3.0385    0.0000 O   0  0  0  0  0  0  0  0  0  0  0  0
   -2.0676    2.9074    0.0000 O   0  0  0  0  0  0  0  0  0  0  0  0
   -2.1987   -0.5635    0.0000 C   0  0  0  0  0  0  0  0  0  0  0  0
   -2.1987   -1.3885    0.0000 C   0  0  0  0  0  0  0  0  0  0  0  0
   -1.4842   -1.8010    0.0000 N   0  0  0  0  0  0  0  0  0  0  0  0
   -0.7697   -1.3885    0.0000 C   0  0  0  0  0  0  0  0  0  0  0  0
   -0.7697   -0.5635    0.0000 N   0  0  0  0  0  0  0  0  0  0  0  0
   -2.9131   -0.1510    0.0000 Cl  0  0  0  0  0  0  0  0  0  0  0  0
   -0.0553   -1.8010    0.0000 N   0  0  0  0  0  0  0  0  0  0  0  0
    0.6592   -1.3885    0.0000 C   0  0  0  0  0  0  0  0  0  0  0  0
    1.3737   -1.8010    0.0000 C   0  0  0  0  0  0  0  0  0  0  0  0
    2.0881   -1.3885    0.0000 C   0  0  0  0  0  0  0  0  0  0  0  0
    2.0881   -0.5635    0.0000 C   0  0  0  0  0  0  0  0  0  0  0  0
    1.3737   -0.1510    0.0000 C   0  0  0  0  0  0  0  0  0  0  0  0
    0.6592   -0.5635    0.0000 C   0  0  0  0  0  0  0  0  0  0  0  0
    1.3737   -2.6260    0.0000 O   0  0  0  0  0  0  0  0  0  0  0  0
    2.0881   -3.0385    0.0000 C   0  0  0  0  0  0  0  0  0  0  0  0
    2.8026   -0.1510    0.0000 C   0  0  0  0  0  0  0  0  0  0  0  0
    2.8026    0.6740    0.0000 C   0  0  0  0  0  0  0  0  0  0  0  0
    2.0881    1.0865    0.0000 N   0  0  0  0  0  0  0  0  0  0  0  0
    1.3737    0.6740    0.0000 C   0  0  0  0  0  0  0  0  0  0  0  0
    3.2151   -0.8655    0.0000 C   0  0  0  0  0  0  0  0  0  0  0  0
    3.6276   -0.1510    0.0000 C   0  0  0  0  0  0  0  0  0  0  0  0
  1  2  4  0  0  0  0
  2  3  4  0  0  0  0
  3  4  4  0  0  0  0
  4  5  4  0  0  0  0
  5  6  4  0  0  0  0
  6  1  4  0  0  0  0
  4  7  1  0  0  0  0
  8  9  1  0  0  0  0
  9 10  1  0  0  0  0
 10  5  1  0  0  0  0
  7 11  1  0  0  0  0
  9 12  1  0  0  0  0
 10 13  2  0  0  0  0
 10 14  2  0  0  0  0
 11 15  4  0  0  0  0
 15 16  4  0  0  0  0
 16 17  4  0  0  0  0
 17 18  4  0  0  0  0
 18 19  4  0  0  0  0
 19 11  4  0  0  0  0
 15 20  1  0  0  0  0
 18 21  1  0  0  0  0
 21 22  1  0  0  0  0
 22 23  4  0  0  0  0
 23 24  4  0  0  0  0
 24 25  4  0  0  0  0
 25 26  4  0  0  0  0
 26 27  4  0  0  0  0
 27 22  4  0  0  0  0
 23 28  1  0  0  0  0
 28 29  1  0  0  0  0
 25 30  1  0  0  0  0
 30 31  1  0  0  0  0
 31 32  1  0  0  0  0
 32 33  1  0  0  0  0
 33 26  1  0  0  0  0
 30 34  1  0  0  0  0
 30 35  1  0  0  0  0
M  END
> <From>
www.bindingDB.org

> <BindingDB Reactant_set_id>
490508

> <Ligand InChI>
InChI=1S/C25H30ClN5O3S/c1-15(2)35(32,33)22-9-7-6-8-19(22)29-23-18(26)13-28-24(31-23)30-20-10-16-12-27-14-25(3,4)17(16)11-21(20)34-5/h6-11,13,15,27H,12,14H2,1-5H3,(H2,28,29,30,31)

> <Ligand InChI Key>
YHUJRNYERVRVGH-UHFFFAOYSA-N

> <BindingDB MonomerID>
244015

> <BindingDB Ligand Name>
5-chloro-N4-(2-(isopropylsulfonyl)phenyl)-N2-(6-methoxy-4,4-dimethyl-1,2,3,4-tetrahydroisoquinolin-7-yl)pyrimidine-2,4-diamine::US10053458, 75

> <Target Name Assigned by Curator or DataSource>
ALK tyrosine kinase receptor

> <Target Source Organism According to Curator or DataSource>
Homo sapiens

> <Ki (nM)>


> <IC50 (nM)>
<10.00

> <Kd (nM)>


> <EC50 (nM)>


> <kon (M-1-s-1)>


> <koff (s-1)>


> <pH>


> <Temp C>
25.00

> <Curation/DataSource>
US Patent

> <Article DOI>


> <PMID>


> <PubChem AID>


> <Patent Number>
US10053458

> <Authors>
Yun, CS; Kim, HR; Cho, SY; Jung, HJ; Lee, K; Chae, CH; Lee, CO; Park, CH; Kim, P; Hwang, JY; Ha, JD; Ahn, SJ

> <Institution>
KOREA RESEARCH INSTITUTE OF CHEMICAL TECHNOLOGY

> <Link to Ligand in BindingDB>
http://www.bindingdb.org/bind/chemsearch/marvin/MolStructure.jsp?monomerid=244015

> <Link to Ligand-Target Pair in BindingDB>
http://www.bindingdb.org/jsp/dbsearch/PrimarySearch_ki.jsp?energyterm=kJ/mole&tag=pol&polymerid=5809&target=ALK+tyrosine+kinase+receptor&column=ki&startPg=0&Increment=50&submit=Search

> <Link to Ligand-Target Pair in BindingDB>
http://www.bindingdb.org/jsp/dbsearch/PrimarySearch_ki.jsp?energyterm=kJ/mole&tag=r21&monomerid=244015&enzyme=ALK+tyrosine+kinase+receptor&column=ki&startPg=0&Increment=50&submit=Search

> <Ligand HET ID in PDB>


> <PDB ID(s) for Ligand-Target Complex>


> <PubChem CID>
129048522

> <PubChem SID>
376221846

> <ChEBI ID of Ligand>


> <ChEMBL ID of Ligand>


> <DrugBank ID of Ligand>


> <IUPHAR_GRAC ID of Ligand>


> <KEGG ID of Ligand>


> <ZINC ID of Ligand>


> <Number of Protein Chains in Target (>1 implies a multichain complex)>
1

> <BindingDB Target Chain Sequence>
MGAIGLLWLLPLLLSTAAVGSGMGTGQRAGSPAAGPPLQPREPLSYSRLQRKSLAVDFVVPSLFRVYARDLLLPPSSSELKAGRPEARGSLALDCAPLLRLLGPAPGVSWTAGSPAPAEARTLSRVLKGGSVRKLRRAKQLVLELGEEAILEGCVGPPGEAAVGLLQFNLSELFSWWIRQGEGRLRIRLMPEKKASEVGREGRLSAAIRASQPRLLFQIFGTGHSSLESPTNMPSPSPDYFTWNLTWIMKDSFPFLSHRSRYGLECSFDFPCELEYSPPLHDLRNQSWSWRRIPSEEASQMDLLDGPGAERSKEMPRGSFLLLNTSADSKHTILSPWMRSSSEHCTLAVSVHRHLQPSGRYIAQLLPHNEAAREILLMPTPGKHGWTVLQGRIGRPDNPFRVALEYISSGNRSLSAVDFFALKNCSEGTSPGSKMALQSSFTCWNGTVLQLGQACDFHQDCAQGEDESQMCRKLPVGFYCNFEDGFCGWTQGTLSPHTPQWQVRTLKDARFQDHQDHALLLSTTDVPASESATVTSATFPAPIKSSPCELRMSWLIRGVLRGNVSLVLVENKTGKEQGRMVWHVAAYEGLSLWQWMVLPLLDVSDRFWLQMVAWWGQGSRAIVAFDNISISLDCYLTISGEDKILQNTAPKSRNLFERNPNKELKPGENSPRQTPIFDPTVHWLFTTCGASGPHGPTQAQCNNAYQNSNLSVEVGSEGPLKGIQIWKVPATDTYSISGYGAAGGKGGKNTMMRSHGVSVLGIFNLEKDDMLYILVGQQGEDACPSTNQLIQKVCIGENNVIEEEIRVNRSVHEWAGGGGGGGGATYVFKMKDGVPVPLIIAAGGGGRAYGAKTDTFHPERLENNSSVLGLNGNSGAAGGGGGWNDNTSLLWAGKSLQEGATGGHSCPQAMKKWGWETRGGFGGGGGGCSSGGGGGGYIGGNAASNNDPEMDGEDGVSFISPLGILYTPALKVMEGHGEVNIKHYLNCSHCEVDECHMDPESHKVICFCDHGTVLAEDGVSCIVSPTPEPHLPLSLILSVVTSALVAALVLAFSGIMIVYRRKHQELQAMQMELQSPEYKLSKLRTSTIMTDYNPNYCFAGKTSSISDLKEVPRKNITLIRGLGHGAFGEVYEGQVSGMPNDPSPLQVAVKTLPEVCSEQDELDFLMEALIISKFNHQNIVRCIGVSLQSLPRFILLELMAGGDLKSFLRETRPRPSQPSSLAMLDLLHVARDIACGCQYLEENHFIHRDIAARNCLLTCPGPGRVAKIGDFGMARDIYRASYYRKGGCAMLPVKWMPPEAFMEGIFTSKTDTWSFGVLLWEIFSLGYMPYPSKSNQEVLEFVTSGGRMDPPKNCPGPVYRIMTQCWQHQPEDRPNFAIILERIEYCTQDPDVINTALPIEYGPLVEEEEKVPVRPKDPEGVPPLLVSQQAKREEERSPAAPPPLPTTSSGKAAKKPTAAEISVRVPRGPAVEGGHVNMAFSQSNPPSELHKVHGSRNKPTSLWNPTYGSWFTEKPTKKNNPIAKKEPHDRGNLGLEGSCTVPPNVATGRLPGASLLLEPSSLTANMKEVPLFRLRHFPCGNVNYGYQQQGLPLEAATAPGAGHYEDTILKSKNSMNQPGP

> <PDB ID(s) of Target Chain>
2XB7,2XBA,3AOX,5FTO,5FTQ,6E0R,6EBW,6EDL,6MX8

> <UniProt (SwissProt) Recommended Name of Target Chain>
ALK tyrosine kinase receptor

> <UniProt (SwissProt) Entry Name of Target Chain>
ALK_HUMAN

> <UniProt (SwissProt) Primary ID of Target Chain>
Q9UM73

> <UniProt (SwissProt) Secondary ID(s) of Target Chain>
Q4ZFX9,Q53QQ6,Q53RZ4,Q59FI3,Q9Y4K6

> <UniProt (SwissProt) Alternative ID(s) of Target Chain>


> <UniProt (TrEMBL) Submitted Name of Target Chain>


> <UniProt (TrEMBL) Entry Name of Target Chain>


> <UniProt (TrEMBL) Primary ID of Target Chain>


> <UniProt (TrEMBL) Secondary ID(s) of Target Chain>


> <UniProt (TrEMBL) Alternative ID(s) of Target Chain>


$$$$
00233001.cdx
  Mrv0541 10181809492D          

 36 39  0  0  0  0            999 V2000
   -3.9296    1.9115    0.0000 C   0  0  0  0  0  0  0  0  0  0  0  0
   -3.9296    1.0865    0.0000 C   0  0  0  0  0  0  0  0  0  0  0  0
   -3.2151    0.6740    0.0000 C   0  0  0  0  0  0  0  0  0  0  0  0
   -2.5006    1.0865    0.0000 C   0  0  0  0  0  0  0  0  0  0  0  0
   -2.5006    1.9115    0.0000 C   0  0  0  0  0  0  0  0  0  0  0  0
   -3.2151    2.3240    0.0000 C   0  0  0  0  0  0  0  0  0  0  0  0
   -1.7862    0.6740    0.0000 N   0  0  0  0  0  0  0  0  0  0  0  0
   -1.0717    1.0865    0.0000 C   0  0  0  0  0  0  0  0  0  0  0  0
   -1.0717    1.9115    0.0000 C   0  0  0  0  0  0  0  0  0  0  0  0
   -1.7862    2.3240    0.0000 S   0  0  0  0  0  0  0  0  0  0  0  0
   -1.7862   -0.1510    0.0000 C   0  0  0  0  0  0  0  0  0  0  0  0
   -0.3572    2.3240    0.0000 C   0  0  0  0  0  0  0  0  0  0  0  0
   -1.3737    3.0385    0.0000 O   0  0  0  0  0  0  0  0  0  0  0  0
   -2.3695    2.9074    0.0000 O   0  0  0  0  0  0  0  0  0  0  0  0
   -2.5006   -0.5635    0.0000 C   0  0  0  0  0  0  0  0  0  0  0  0
   -2.5006   -1.3885    0.0000 C   0  0  0  0  0  0  0  0  0  0  0  0
   -1.7862   -1.8010    0.0000 N   0  0  0  0  0  0  0  0  0  0  0  0
   -1.0717   -1.3885    0.0000 C   0  0  0  0  0  0  0  0  0  0  0  0
   -1.0717   -0.5635    0.0000 N   0  0  0  0  0  0  0  0  0  0  0  0
   -3.2151   -0.1510    0.0000 Cl  0  0  0  0  0  0  0  0  0  0  0  0
   -0.3572   -1.8010    0.0000 N   0  0  0  0  0  0  0  0  0  0  0  0
    0.3572   -1.3885    0.0000 C   0  0  0  0  0  0  0  0  0  0  0  0
    1.0717   -1.8010    0.0000 C   0  0  0  0  0  0  0  0  0  0  0  0
    1.7862   -1.3885    0.0000 C   0  0  0  0  0  0  0  0  0  0  0  0
    1.7862   -0.5635    0.0000 C   0  0  0  0  0  0  0  0  0  0  0  0
    1.0717   -0.1510    0.0000 C   0  0  0  0  0  0  0  0  0  0  0  0
    0.3572   -0.5635    0.0000 C   0  0  0  0  0  0  0  0  0  0  0  0
    1.0717   -2.6260    0.0000 O   0  0  0  0  0  0  0  0  0  0  0  0
    1.7862   -3.0385    0.0000 C   0  0  0  0  0  0  0  0  0  0  0  0
    2.5006   -0.1510    0.0000 C   0  0  0  0  0  0  0  0  0  0  0  0
    2.5006    0.6740    0.0000 N   0  0  0  0  0  0  0  0  0  0  0  0
    1.7862    1.0865    0.0000 C   0  0  0  0  0  0  0  0  0  0  0  0
    1.0717    0.6740    0.0000 C   0  0  0  0  0  0  0  0  0  0  0  0
    3.2151   -0.5635    0.0000 C   0  0  0  0  0  0  0  0  0  0  0  0
    3.9296   -0.1510    0.0000 O   0  0  0  0  0  0  0  0  0  0  0  0
    3.2151   -1.3885    0.0000 O   0  0  0  0  0  0  0  0  0  0  0  0
  1  2  4  0  0  0  0
  2  3  4  0  0  0  0
  3  4  4  0  0  0  0
  4  5  4  0  0  0  0
  5  6  4  0  0  0  0
  6  1  4  0  0  0  0
  4  7  1  0  0  0  0
  8  9  1  0  0  0  0
  9 10  1  0  0  0  0
 10  5  1  0  0  0  0
  7 11  1  0  0  0  0
  9 12  1  0  0  0  0
 10 13  2  0  0  0  0
 10 14  2  0  0  0  0
 11 15  4  0  0  0  0
 15 16  4  0  0  0  0
 16 17  4  0  0  0  0
 17 18  4  0  0  0  0
 18 19  4  0  0  0  0
 19 11  4  0  0  0  0
 15 20  1  0  0  0  0
 18 21  1  0  0  0  0
 21 22  1  0  0  0  0
 22 23  4  0  0  0  0
 23 24  4  0  0  0  0
 24 25  4  0  0  0  0
 25 26  4  0  0  0  0
 26 27  4  0  0  0  0
 27 22  4  0  0  0  0
 23 28  1  0  0  0  0
 28 29  1  0  0  0  0
 25 30  1  0  0  0  0
 30 31  1  0  0  0  0
 31 32  1  0  0  0  0
 32 33  1  0  0  0  0
 33 26  1  0  0  0  0
 30 34  1  0  0  0  0
 34 35  1  0  0  0  0
 34 36  2  0  0  0  0
M  END
> <From>
www.bindingDB.org

> <BindingDB Reactant_set_id>
490510

> <Ligand InChI>
InChI=1S/C24H26ClN5O5S/c1-13(2)36(33,34)20-7-5-4-6-17(20)28-22-16(25)12-27-24(30-22)29-18-10-14-8-9-26-21(23(31)32)15(14)11-19(18)35-3/h4-7,10-13,21,26H,8-9H2,1-3H3,(H,31,32)(H2,27,28,29,30)

> <Ligand InChI Key>
ICSDMJULIKTRRQ-UHFFFAOYSA-N

> <BindingDB MonomerID>
244017

> <BindingDB Ligand Name>
6-(5-chloro-4-(2-(isopropylsulfonyl)phenylamino)pyrimidin-2-yl)amino-7-methoxy-1,2,3,4-dihydroisoquinoline-1-carboxylic acid::US10053458, 76

> <Target Name Assigned by Curator or DataSource>
ALK tyrosine kinase receptor

> <Target Source Organism According to Curator or DataSource>
Homo sapiens

> <Ki (nM)>


> <IC50 (nM)>
<10.00

> <Kd (nM)>


> <EC50 (nM)>


> <kon (M-1-s-1)>


> <koff (s-1)>


> <pH>


> <Temp C>
25.00

> <Curation/DataSource>
US Patent

> <Article DOI>


> <PMID>


> <PubChem AID>


> <Patent Number>
US10053458

> <Authors>
Yun, CS; Kim, HR; Cho, SY; Jung, HJ; Lee, K; Chae, CH; Lee, CO; Park, CH; Kim, P; Hwang, JY; Ha, JD; Ahn, SJ

> <Institution>
KOREA RESEARCH INSTITUTE OF CHEMICAL TECHNOLOGY

> <Link to Ligand in BindingDB>
http://www.bindingdb.org/bind/chemsearch/marvin/MolStructure.jsp?monomerid=244017

> <Link to Ligand-Target Pair in BindingDB>
http://www.bindingdb.org/jsp/dbsearch/PrimarySearch_ki.jsp?energyterm=kJ/mole&tag=pol&polymerid=5809&target=ALK+tyrosine+kinase+receptor&column=ki&startPg=0&Increment=50&submit=Search

> <Link to Ligand-Target Pair in BindingDB>
http://www.bindingdb.org/jsp/dbsearch/PrimarySearch_ki.jsp?energyterm=kJ/mole&tag=r21&monomerid=244017&enzyme=ALK+tyrosine+kinase+receptor&column=ki&startPg=0&Increment=50&submit=Search

> <Ligand HET ID in PDB>


> <PDB ID(s) for Ligand-Target Complex>


> <PubChem CID>
129147992

> <PubChem SID>
376221848

> <ChEBI ID of Ligand>


> <ChEMBL ID of Ligand>


> <DrugBank ID of Ligand>


> <IUPHAR_GRAC ID of Ligand>


> <KEGG ID of Ligand>


> <ZINC ID of Ligand>


> <Number of Protein Chains in Target (>1 implies a multichain complex)>
1

> <BindingDB Target Chain Sequence>
MGAIGLLWLLPLLLSTAAVGSGMGTGQRAGSPAAGPPLQPREPLSYSRLQRKSLAVDFVVPSLFRVYARDLLLPPSSSELKAGRPEARGSLALDCAPLLRLLGPAPGVSWTAGSPAPAEARTLSRVLKGGSVRKLRRAKQLVLELGEEAILEGCVGPPGEAAVGLLQFNLSELFSWWIRQGEGRLRIRLMPEKKASEVGREGRLSAAIRASQPRLLFQIFGTGHSSLESPTNMPSPSPDYFTWNLTWIMKDSFPFLSHRSRYGLECSFDFPCELEYSPPLHDLRNQSWSWRRIPSEEASQMDLLDGPGAERSKEMPRGSFLLLNTSADSKHTILSPWMRSSSEHCTLAVSVHRHLQPSGRYIAQLLPHNEAAREILLMPTPGKHGWTVLQGRIGRPDNPFRVALEYISSGNRSLSAVDFFALKNCSEGTSPGSKMALQSSFTCWNGTVLQLGQACDFHQDCAQGEDESQMCRKLPVGFYCNFEDGFCGWTQGTLSPHTPQWQVRTLKDARFQDHQDHALLLSTTDVPASESATVTSATFPAPIKSSPCELRMSWLIRGVLRGNVSLVLVENKTGKEQGRMVWHVAAYEGLSLWQWMVLPLLDVSDRFWLQMVAWWGQGSRAIVAFDNISISLDCYLTISGEDKILQNTAPKSRNLFERNPNKELKPGENSPRQTPIFDPTVHWLFTTCGASGPHGPTQAQCNNAYQNSNLSVEVGSEGPLKGIQIWKVPATDTYSISGYGAAGGKGGKNTMMRSHGVSVLGIFNLEKDDMLYILVGQQGEDACPSTNQLIQKVCIGENNVIEEEIRVNRSVHEWAGGGGGGGGATYVFKMKDGVPVPLIIAAGGGGRAYGAKTDTFHPERLENNSSVLGLNGNSGAAGGGGGWNDNTSLLWAGKSLQEGATGGHSCPQAMKKWGWETRGGFGGGGGGCSSGGGGGGYIGGNAASNNDPEMDGEDGVSFISPLGILYTPALKVMEGHGEVNIKHYLNCSHCEVDECHMDPESHKVICFCDHGTVLAEDGVSCIVSPTPEPHLPLSLILSVVTSALVAALVLAFSGIMIVYRRKHQELQAMQMELQSPEYKLSKLRTSTIMTDYNPNYCFAGKTSSISDLKEVPRKNITLIRGLGHGAFGEVYEGQVSGMPNDPSPLQVAVKTLPEVCSEQDELDFLMEALIISKFNHQNIVRCIGVSLQSLPRFILLELMAGGDLKSFLRETRPRPSQPSSLAMLDLLHVARDIACGCQYLEENHFIHRDIAARNCLLTCPGPGRVAKIGDFGMARDIYRASYYRKGGCAMLPVKWMPPEAFMEGIFTSKTDTWSFGVLLWEIFSLGYMPYPSKSNQEVLEFVTSGGRMDPPKNCPGPVYRIMTQCWQHQPEDRPNFAIILERIEYCTQDPDVINTALPIEYGPLVEEEEKVPVRPKDPEGVPPLLVSQQAKREEERSPAAPPPLPTTSSGKAAKKPTAAEISVRVPRGPAVEGGHVNMAFSQSNPPSELHKVHGSRNKPTSLWNPTYGSWFTEKPTKKNNPIAKKEPHDRGNLGLEGSCTVPPNVATGRLPGASLLLEPSSLTANMKEVPLFRLRHFPCGNVNYGYQQQGLPLEAATAPGAGHYEDTILKSKNSMNQPGP

> <PDB ID(s) of Target Chain>
2XB7,2XBA,3AOX,5FTO,5FTQ,6E0R,6EBW,6EDL,6MX8

> <UniProt (SwissProt) Recommended Name of Target Chain>
ALK tyrosine kinase receptor

> <UniProt (SwissProt) Entry Name of Target Chain>
ALK_HUMAN

> <UniProt (SwissProt) Primary ID of Target Chain>
Q9UM73

> <UniProt (SwissProt) Secondary ID(s) of Target Chain>
Q4ZFX9,Q53QQ6,Q53RZ4,Q59FI3,Q9Y4K6

> <UniProt (SwissProt) Alternative ID(s) of Target Chain>


> <UniProt (TrEMBL) Submitted Name of Target Chain>


> <UniProt (TrEMBL) Entry Name of Target Chain>


> <UniProt (TrEMBL) Primary ID of Target Chain>


> <UniProt (TrEMBL) Secondary ID(s) of Target Chain>


> <UniProt (TrEMBL) Alternative ID(s) of Target Chain>


$$$$
00234001.cdx
  Mrv0541 10181809492D          

 37 40  0  0  0  0            999 V2000
   -3.5724    1.9115    0.0000 C   0  0  0  0  0  0  0  0  0  0  0  0
   -3.5724    1.0865    0.0000 C   0  0  0  0  0  0  0  0  0  0  0  0
   -2.8579    0.6740    0.0000 C   0  0  0  0  0  0  0  0  0  0  0  0
   -2.1434    1.0865    0.0000 C   0  0  0  0  0  0  0  0  0  0  0  0
   -2.1434    1.9115    0.0000 C   0  0  0  0  0  0  0  0  0  0  0  0
   -2.8579    2.3240    0.0000 C   0  0  0  0  0  0  0  0  0  0  0  0
   -1.4289    0.6740    0.0000 N   0  0  0  0  0  0  0  0  0  0  0  0
   -0.7145    1.0865    0.0000 C   0  0  0  0  0  0  0  0  0  0  0  0
   -0.7145    1.9115    0.0000 C   0  0  0  0  0  0  0  0  0  0  0  0
   -1.4289    2.3240    0.0000 S   0  0  0  0  0  0  0  0  0  0  0  0
   -1.4289   -0.1510    0.0000 C   0  0  0  0  0  0  0  0  0  0  0  0
    0.0000    2.3240    0.0000 C   0  0  0  0  0  0  0  0  0  0  0  0
   -1.0164    3.0385    0.0000 O   0  0  0  0  0  0  0  0  0  0  0  0
   -2.0123    2.9074    0.0000 O   0  0  0  0  0  0  0  0  0  0  0  0
   -2.1434   -0.5635    0.0000 C   0  0  0  0  0  0  0  0  0  0  0  0
   -2.1434   -1.3885    0.0000 C   0  0  0  0  0  0  0  0  0  0  0  0
   -1.4289   -1.8010    0.0000 N   0  0  0  0  0  0  0  0  0  0  0  0
   -0.7145   -1.3885    0.0000 C   0  0  0  0  0  0  0  0  0  0  0  0
   -0.7145   -0.5635    0.0000 N   0  0  0  0  0  0  0  0  0  0  0  0
   -2.8579   -0.1510    0.0000 Cl  0  0  0  0  0  0  0  0  0  0  0  0
    0.0000   -1.8010    0.0000 N   0  0  0  0  0  0  0  0  0  0  0  0
    0.7145   -1.3885    0.0000 C   0  0  0  0  0  0  0  0  0  0  0  0
    1.4289   -1.8010    0.0000 C   0  0  0  0  0  0  0  0  0  0  0  0
    2.1434   -1.3885    0.0000 C   0  0  0  0  0  0  0  0  0  0  0  0
    2.1434   -0.5635    0.0000 C   0  0  0  0  0  0  0  0  0  0  0  0
    1.4289   -0.1510    0.0000 C   0  0  0  0  0  0  0  0  0  0  0  0
    0.7145   -0.5635    0.0000 C   0  0  0  0  0  0  0  0  0  0  0  0
    1.4289   -2.6260    0.0000 O   0  0  0  0  0  0  0  0  0  0  0  0
    2.1434   -3.0385    0.0000 C   0  0  0  0  0  0  0  0  0  0  0  0
    2.8579   -0.1510    0.0000 C   0  0  0  0  0  0  0  0  0  0  0  0
    2.8579    0.6740    0.0000 N   0  0  0  0  0  0  0  0  0  0  0  0
    2.1434    1.0865    0.0000 C   0  0  0  0  0  0  0  0  0  0  0  0
    1.4289    0.6740    0.0000 C   0  0  0  0  0  0  0  0  0  0  0  0
    3.5724   -0.5635    0.0000 C   0  0  0  0  0  0  0  0  0  0  0  0
    3.5724    1.0865    0.0000 C   0  0  0  0  0  0  0  0  0  0  0  0
    3.5724    1.9115    0.0000 C   0  0  0  0  0  0  0  0  0  0  0  0
    3.5724    0.2615    0.0000 C   0  0  0  0  0  0  0  0  0  0  0  0
  1  2  4  0  0  0  0
  2  3  4  0  0  0  0
  3  4  4  0  0  0  0
  4  5  4  0  0  0  0
  5  6  4  0  0  0  0
  6  1  4  0  0  0  0
  4  7  1  0  0  0  0
  8  9  1  0  0  0  0
  9 10  1  0  0  0  0
 10  5  1  0  0  0  0
  7 11  1  0  0  0  0
  9 12  1  0  0  0  0
 10 13  2  0  0  0  0
 10 14  2  0  0  0  0
 11 15  4  0  0  0  0
 15 16  4  0  0  0  0
 16 17  4  0  0  0  0
 17 18  4  0  0  0  0
 18 19  4  0  0  0  0
 19 11  4  0  0  0  0
 15 20  1  0  0  0  0
 18 21  1  0  0  0  0
 21 22  1  0  0  0  0
 22 23  4  0  0  0  0
 23 24  4  0  0  0  0
 24 25  4  0  0  0  0
 25 26  4  0  0  0  0
 26 27  4  0  0  0  0
 27 22  4  0  0  0  0
 23 28  1  0  0  0  0
 28 29  1  0  0  0  0
 25 30  1  0  0  0  0
 30 31  1  0  0  0  0
 31 32  1  0  0  0  0
 32 33  1  0  0  0  0
 33 26  1  0  0  0  0
 30 34  1  0  0  0  0
 31 35  1  0  0  0  0
 35 36  1  0  0  0  0
 30 37  1  0  0  0  0
M  END
> <From>
www.bindingDB.org

> <BindingDB Reactant_set_id>
490512

> <Ligand InChI>
InChI=1S/C27H34ClN5O3S/c1-7-33-13-12-18-14-22(23(36-6)15-19(18)27(33,4)5)31-26-29-16-20(28)25(32-26)30-21-10-8-9-11-24(21)37(34,35)17(2)3/h8-11,14-17H,7,12-13H2,1-6H3,(H2,29,30,31,32)

> <Ligand InChI Key>
DFRSZIQODVENBR-UHFFFAOYSA-N

> <BindingDB MonomerID>
244018

> <BindingDB Ligand Name>
5-chloro-N4-(2-(isopropylsulfonyl)phenyl)-N2-(2-ethyl-7-methoxy-1,1-dimethyl-1,2,3,4-tetrahydroisoquinolin-6-yl)pyrimidine-2,4-diamine::US10053458, 77

> <Target Name Assigned by Curator or DataSource>
ALK tyrosine kinase receptor

> <Target Source Organism According to Curator or DataSource>
Homo sapiens

> <Ki (nM)>


> <IC50 (nM)>
<10.00

> <Kd (nM)>


> <EC50 (nM)>


> <kon (M-1-s-1)>


> <koff (s-1)>


> <pH>


> <Temp C>
25.00

> <Curation/DataSource>
US Patent

> <Article DOI>


> <PMID>


> <PubChem AID>


> <Patent Number>
US10053458

> <Authors>
Yun, CS; Kim, HR; Cho, SY; Jung, HJ; Lee, K; Chae, CH; Lee, CO; Park, CH; Kim, P; Hwang, JY; Ha, JD; Ahn, SJ

> <Institution>
KOREA RESEARCH INSTITUTE OF CHEMICAL TECHNOLOGY

> <Link to Ligand in BindingDB>
http://www.bindingdb.org/bind/chemsearch/marvin/MolStructure.jsp?monomerid=244018

> <Link to Ligand-Target Pair in BindingDB>
http://www.bindingdb.org/jsp/dbsearch/PrimarySearch_ki.jsp?energyterm=kJ/mole&tag=pol&polymerid=5809&target=ALK+tyrosine+kinase+receptor&column=ki&startPg=0&Increment=50&submit=Search

> <Link to Ligand-Target Pair in BindingDB>
http://www.bindingdb.org/jsp/dbsearch/PrimarySearch_ki.jsp?energyterm=kJ/mole&tag=r21&monomerid=244018&enzyme=ALK+tyrosine+kinase+receptor&column=ki&startPg=0&Increment=50&submit=Search

> <Ligand HET ID in PDB>


> <PDB ID(s) for Ligand-Target Complex>


> <PubChem CID>
129048473

> <PubChem SID>
376221849

> <ChEBI ID of Ligand>


> <ChEMBL ID of Ligand>


> <DrugBank ID of Ligand>


> <IUPHAR_GRAC ID of Ligand>


> <KEGG ID of Ligand>


> <ZINC ID of Ligand>


> <Number of Protein Chains in Target (>1 implies a multichain complex)>
1

> <BindingDB Target Chain Sequence>
MGAIGLLWLLPLLLSTAAVGSGMGTGQRAGSPAAGPPLQPREPLSYSRLQRKSLAVDFVVPSLFRVYARDLLLPPSSSELKAGRPEARGSLALDCAPLLRLLGPAPGVSWTAGSPAPAEARTLSRVLKGGSVRKLRRAKQLVLELGEEAILEGCVGPPGEAAVGLLQFNLSELFSWWIRQGEGRLRIRLMPEKKASEVGREGRLSAAIRASQPRLLFQIFGTGHSSLESPTNMPSPSPDYFTWNLTWIMKDSFPFLSHRSRYGLECSFDFPCELEYSPPLHDLRNQSWSWRRIPSEEASQMDLLDGPGAERSKEMPRGSFLLLNTSADSKHTILSPWMRSSSEHCTLAVSVHRHLQPSGRYIAQLLPHNEAAREILLMPTPGKHGWTVLQGRIGRPDNPFRVALEYISSGNRSLSAVDFFALKNCSEGTSPGSKMALQSSFTCWNGTVLQLGQACDFHQDCAQGEDESQMCRKLPVGFYCNFEDGFCGWTQGTLSPHTPQWQVRTLKDARFQDHQDHALLLSTTDVPASESATVTSATFPAPIKSSPCELRMSWLIRGVLRGNVSLVLVENKTGKEQGRMVWHVAAYEGLSLWQWMVLPLLDVSDRFWLQMVAWWGQGSRAIVAFDNISISLDCYLTISGEDKILQNTAPKSRNLFERNPNKELKPGENSPRQTPIFDPTVHWLFTTCGASGPHGPTQAQCNNAYQNSNLSVEVGSEGPLKGIQIWKVPATDTYSISGYGAAGGKGGKNTMMRSHGVSVLGIFNLEKDDMLYILVGQQGEDACPSTNQLIQKVCIGENNVIEEEIRVNRSVHEWAGGGGGGGGATYVFKMKDGVPVPLIIAAGGGGRAYGAKTDTFHPERLENNSSVLGLNGNSGAAGGGGGWNDNTSLLWAGKSLQEGATGGHSCPQAMKKWGWETRGGFGGGGGGCSSGGGGGGYIGGNAASNNDPEMDGEDGVSFISPLGILYTPALKVMEGHGEVNIKHYLNCSHCEVDECHMDPESHKVICFCDHGTVLAEDGVSCIVSPTPEPHLPLSLILSVVTSALVAALVLAFSGIMIVYRRKHQELQAMQMELQSPEYKLSKLRTSTIMTDYNPNYCFAGKTSSISDLKEVPRKNITLIRGLGHGAFGEVYEGQVSGMPNDPSPLQVAVKTLPEVCSEQDELDFLMEALIISKFNHQNIVRCIGVSLQSLPRFILLELMAGGDLKSFLRETRPRPSQPSSLAMLDLLHVARDIACGCQYLEENHFIHRDIAARNCLLTCPGPGRVAKIGDFGMARDIYRASYYRKGGCAMLPVKWMPPEAFMEGIFTSKTDTWSFGVLLWEIFSLGYMPYPSKSNQEVLEFVTSGGRMDPPKNCPGPVYRIMTQCWQHQPEDRPNFAIILERIEYCTQDPDVINTALPIEYGPLVEEEEKVPVRPKDPEGVPPLLVSQQAKREEERSPAAPPPLPTTSSGKAAKKPTAAEISVRVPRGPAVEGGHVNMAFSQSNPPSELHKVHGSRNKPTSLWNPTYGSWFTEKPTKKNNPIAKKEPHDRGNLGLEGSCTVPPNVATGRLPGASLLLEPSSLTANMKEVPLFRLRHFPCGNVNYGYQQQGLPLEAATAPGAGHYEDTILKSKNSMNQPGP

> <PDB ID(s) of Target Chain>
2XB7,2XBA,3AOX,5FTO,5FTQ,6E0R,6EBW,6EDL,6MX8

> <UniProt (SwissProt) Recommended Name of Target Chain>
ALK tyrosine kinase receptor

> <UniProt (SwissProt) Entry Name of Target Chain>
ALK_HUMAN

> <UniProt (SwissProt) Primary ID of Target Chain>
Q9UM73

> <UniProt (SwissProt) Secondary ID(s) of Target Chain>
Q4ZFX9,Q53QQ6,Q53RZ4,Q59FI3,Q9Y4K6

> <UniProt (SwissProt) Alternative ID(s) of Target Chain>


> <UniProt (TrEMBL) Submitted Name of Target Chain>


> <UniProt (TrEMBL) Entry Name of Target Chain>


> <UniProt (TrEMBL) Primary ID of Target Chain>


> <UniProt (TrEMBL) Secondary ID(s) of Target Chain>


> <UniProt (TrEMBL) Alternative ID(s) of Target Chain>


$$$$
00239001.cdx
  Mrv0541 10181809492D          

 39 42  0  0  0  0            999 V2000
   -3.9296    1.9115    0.0000 C   0  0  0  0  0  0  0  0  0  0  0  0
   -3.9296    1.0865    0.0000 C   0  0  0  0  0  0  0  0  0  0  0  0
   -3.2151    0.6740    0.0000 C   0  0  0  0  0  0  0  0  0  0  0  0
   -2.5006    1.0865    0.0000 C   0  0  0  0  0  0  0  0  0  0  0  0
   -2.5006    1.9115    0.0000 C   0  0  0  0  0  0  0  0  0  0  0  0
   -3.2151    2.3240    0.0000 C   0  0  0  0  0  0  0  0  0  0  0  0
   -1.7862    0.6740    0.0000 N   0  0  0  0  0  0  0  0  0  0  0  0
   -1.0717    1.0865    0.0000 C   0  0  0  0  0  0  0  0  0  0  0  0
   -1.0717    1.9115    0.0000 C   0  0  0  0  0  0  0  0  0  0  0  0
   -1.7862    2.3240    0.0000 S   0  0  0  0  0  0  0  0  0  0  0  0
   -1.7862   -0.1510    0.0000 C   0  0  0  0  0  0  0  0  0  0  0  0
   -0.3572    2.3240    0.0000 C   0  0  0  0  0  0  0  0  0  0  0  0
   -1.3737    3.0385    0.0000 O   0  0  0  0  0  0  0  0  0  0  0  0
   -2.3695    2.9074    0.0000 O   0  0  0  0  0  0  0  0  0  0  0  0
   -2.5006   -0.5635    0.0000 C   0  0  0  0  0  0  0  0  0  0  0  0
   -2.5006   -1.3885    0.0000 C   0  0  0  0  0  0  0  0  0  0  0  0
   -1.7862   -1.8010    0.0000 N   0  0  0  0  0  0  0  0  0  0  0  0
   -1.0717   -1.3885    0.0000 C   0  0  0  0  0  0  0  0  0  0  0  0
   -1.0717   -0.5635    0.0000 N   0  0  0  0  0  0  0  0  0  0  0  0
   -3.2151   -0.1510    0.0000 Cl  0  0  0  0  0  0  0  0  0  0  0  0
   -0.3572   -1.8010    0.0000 N   0  0  0  0  0  0  0  0  0  0  0  0
    0.3572   -1.3885    0.0000 C   0  0  0  0  0  0  0  0  0  0  0  0
    1.0717   -1.8010    0.0000 C   0  0  0  0  0  0  0  0  0  0  0  0
    1.7862   -1.3885    0.0000 C   0  0  0  0  0  0  0  0  0  0  0  0
    1.7862   -0.5635    0.0000 C   0  0  0  0  0  0  0  0  0  0  0  0
    1.0717   -0.1510    0.0000 C   0  0  0  0  0  0  0  0  0  0  0  0
    0.3572   -0.5635    0.0000 C   0  0  0  0  0  0  0  0  0  0  0  0
    1.0717   -2.6260    0.0000 O   0  0  0  0  0  0  0  0  0  0  0  0
    1.7862   -3.0385    0.0000 C   0  0  0  0  0  0  0  0  0  0  0  0
    2.5006   -0.1510    0.0000 C   0  0  0  0  0  0  0  0  0  0  0  0
    2.5006    0.6740    0.0000 N   0  0  0  0  0  0  0  0  0  0  0  0
    1.7862    1.0865    0.0000 C   0  0  0  0  0  0  0  0  0  0  0  0
    1.0717    0.6740    0.0000 C   0  0  0  0  0  0  0  0  0  0  0  0
    3.2151   -0.5635    0.0000 C   0  0  0  0  0  0  0  0  0  0  0  0
    3.2151    1.0865    0.0000 C   0  0  0  0  0  0  0  0  0  0  0  0
    3.2151    1.9115    0.0000 C   0  0  0  0  0  0  0  0  0  0  0  0
    3.2151    0.2615    0.0000 C   0  0  0  0  0  0  0  0  0  0  0  0
    3.9296    0.6740    0.0000 O   0  0  0  0  0  0  0  0  0  0  0  0
    3.9296    2.3240    0.0000 O   0  0  0  0  0  0  0  0  0  0  0  0
  1  2  4  0  0  0  0
  2  3  4  0  0  0  0
  3  4  4  0  0  0  0
  4  5  4  0  0  0  0
  5  6  4  0  0  0  0
  6  1  4  0  0  0  0
  4  7  1  0  0  0  0
  8  9  1  0  0  0  0
  9 10  1  0  0  0  0
 10  5  1  0  0  0  0
  7 11  1  0  0  0  0
  9 12  1  0  0  0  0
 10 13  2  0  0  0  0
 10 14  2  0  0  0  0
 11 15  4  0  0  0  0
 15 16  4  0  0  0  0
 16 17  4  0  0  0  0
 17 18  4  0  0  0  0
 18 19  4  0  0  0  0
 19 11  4  0  0  0  0
 15 20  1  0  0  0  0
 18 21  1  0  0  0  0
 21 22  1  0  0  0  0
 22 23  4  0  0  0  0
 23 24  4  0  0  0  0
 24 25  4  0  0  0  0
 25 26  4  0  0  0  0
 26 27  4  0  0  0  0
 27 22  4  0  0  0  0
 23 28  1  0  0  0  0
 28 29  1  0  0  0  0
 25 30  1  0  0  0  0
 30 31  1  0  0  0  0
 31 32  1  0  0  0  0
 32 33  1  0  0  0  0
 33 26  1  0  0  0  0
 30 34  1  0  0  0  0
 31 35  1  0  0  0  0
 35 36  1  0  0  0  0
 30 37  1  0  0  0  0
 35 38  2  0  0  0  0
 36 39  1  0  0  0  0
M  END
> <From>
www.bindingDB.org

> <BindingDB Reactant_set_id>
490514

> <Ligand InChI>
InChI=1S/C27H32ClN5O5S/c1-16(2)39(36,37)23-9-7-6-8-20(23)30-25-19(28)14-29-26(32-25)31-21-12-17-10-11-33(24(35)15-34)27(3,4)18(17)13-22(21)38-5/h6-9,12-14,16,34H,10-11,15H2,1-5H3,(H2,29,30,31,32)

> <Ligand InChI Key>
NGDAZGIOVRCTBW-UHFFFAOYSA-N

> <BindingDB MonomerID>
244019

> <BindingDB Ligand Name>
1-6-(5-chloro-4-(2-(isopropylsulfonyl)phenylamino)pyrimidin-2-yl)amino-7-methoxy-1,1-dimethyl-3,4-dihydroisoquinolin-2(1H)-yl-2-hydroxyethane-1-one::US10053458, 78

> <Target Name Assigned by Curator or DataSource>
ALK tyrosine kinase receptor

> <Target Source Organism According to Curator or DataSource>
Homo sapiens

> <Ki (nM)>


> <IC50 (nM)>
<10.00

> <Kd (nM)>


> <EC50 (nM)>


> <kon (M-1-s-1)>


> <koff (s-1)>


> <pH>


> <Temp C>
25.00

> <Curation/DataSource>
US Patent

> <Article DOI>


> <PMID>


> <PubChem AID>


> <Patent Number>
US10053458

> <Authors>
Yun, CS; Kim, HR; Cho, SY; Jung, HJ; Lee, K; Chae, CH; Lee, CO; Park, CH; Kim, P; Hwang, JY; Ha, JD; Ahn, SJ

> <Institution>
KOREA RESEARCH INSTITUTE OF CHEMICAL TECHNOLOGY

> <Link to Ligand in BindingDB>
http://www.bindingdb.org/bind/chemsearch/marvin/MolStructure.jsp?monomerid=244019

> <Link to Ligand-Target Pair in BindingDB>
http://www.bindingdb.org/jsp/dbsearch/PrimarySearch_ki.jsp?energyterm=kJ/mole&tag=pol&polymerid=5809&target=ALK+tyrosine+kinase+receptor&column=ki&startPg=0&Increment=50&submit=Search

> <Link to Ligand-Target Pair in BindingDB>
http://www.bindingdb.org/jsp/dbsearch/PrimarySearch_ki.jsp?energyterm=kJ/mole&tag=r21&monomerid=244019&enzyme=ALK+tyrosine+kinase+receptor&column=ki&startPg=0&Increment=50&submit=Search

> <Ligand HET ID in PDB>


> <PDB ID(s) for Ligand-Target Complex>


> <PubChem CID>
129048501

> <PubChem SID>
376221850

> <ChEBI ID of Ligand>


> <ChEMBL ID of Ligand>


> <DrugBank ID of Ligand>


> <IUPHAR_GRAC ID of Ligand>


> <KEGG ID of Ligand>


> <ZINC ID of Ligand>


> <Number of Protein Chains in Target (>1 implies a multichain complex)>
1

> <BindingDB Target Chain Sequence>
MGAIGLLWLLPLLLSTAAVGSGMGTGQRAGSPAAGPPLQPREPLSYSRLQRKSLAVDFVVPSLFRVYARDLLLPPSSSELKAGRPEARGSLALDCAPLLRLLGPAPGVSWTAGSPAPAEARTLSRVLKGGSVRKLRRAKQLVLELGEEAILEGCVGPPGEAAVGLLQFNLSELFSWWIRQGEGRLRIRLMPEKKASEVGREGRLSAAIRASQPRLLFQIFGTGHSSLESPTNMPSPSPDYFTWNLTWIMKDSFPFLSHRSRYGLECSFDFPCELEYSPPLHDLRNQSWSWRRIPSEEASQMDLLDGPGAERSKEMPRGSFLLLNTSADSKHTILSPWMRSSSEHCTLAVSVHRHLQPSGRYIAQLLPHNEAAREILLMPTPGKHGWTVLQGRIGRPDNPFRVALEYISSGNRSLSAVDFFALKNCSEGTSPGSKMALQSSFTCWNGTVLQLGQACDFHQDCAQGEDESQMCRKLPVGFYCNFEDGFCGWTQGTLSPHTPQWQVRTLKDARFQDHQDHALLLSTTDVPASESATVTSATFPAPIKSSPCELRMSWLIRGVLRGNVSLVLVENKTGKEQGRMVWHVAAYEGLSLWQWMVLPLLDVSDRFWLQMVAWWGQGSRAIVAFDNISISLDCYLTISGEDKILQNTAPKSRNLFERNPNKELKPGENSPRQTPIFDPTVHWLFTTCGASGPHGPTQAQCNNAYQNSNLSVEVGSEGPLKGIQIWKVPATDTYSISGYGAAGGKGGKNTMMRSHGVSVLGIFNLEKDDMLYILVGQQGEDACPSTNQLIQKVCIGENNVIEEEIRVNRSVHEWAGGGGGGGGATYVFKMKDGVPVPLIIAAGGGGRAYGAKTDTFHPERLENNSSVLGLNGNSGAAGGGGGWNDNTSLLWAGKSLQEGATGGHSCPQAMKKWGWETRGGFGGGGGGCSSGGGGGGYIGGNAASNNDPEMDGEDGVSFISPLGILYTPALKVMEGHGEVNIKHYLNCSHCEVDECHMDPESHKVICFCDHGTVLAEDGVSCIVSPTPEPHLPLSLILSVVTSALVAALVLAFSGIMIVYRRKHQELQAMQMELQSPEYKLSKLRTSTIMTDYNPNYCFAGKTSSISDLKEVPRKNITLIRGLGHGAFGEVYEGQVSGMPNDPSPLQVAVKTLPEVCSEQDELDFLMEALIISKFNHQNIVRCIGVSLQSLPRFILLELMAGGDLKSFLRETRPRPSQPSSLAMLDLLHVARDIACGCQYLEENHFIHRDIAARNCLLTCPGPGRVAKIGDFGMARDIYRASYYRKGGCAMLPVKWMPPEAFMEGIFTSKTDTWSFGVLLWEIFSLGYMPYPSKSNQEVLEFVTSGGRMDPPKNCPGPVYRIMTQCWQHQPEDRPNFAIILERIEYCTQDPDVINTALPIEYGPLVEEEEKVPVRPKDPEGVPPLLVSQQAKREEERSPAAPPPLPTTSSGKAAKKPTAAEISVRVPRGPAVEGGHVNMAFSQSNPPSELHKVHGSRNKPTSLWNPTYGSWFTEKPTKKNNPIAKKEPHDRGNLGLEGSCTVPPNVATGRLPGASLLLEPSSLTANMKEVPLFRLRHFPCGNVNYGYQQQGLPLEAATAPGAGHYEDTILKSKNSMNQPGP

> <PDB ID(s) of Target Chain>
2XB7,2XBA,3AOX,5FTO,5FTQ,6E0R,6EBW,6EDL,6MX8

> <UniProt (SwissProt) Recommended Name of Target Chain>
ALK tyrosine kinase receptor

> <UniProt (SwissProt) Entry Name of Target Chain>
ALK_HUMAN

> <UniProt (SwissProt) Primary ID of Target Chain>
Q9UM73

> <UniProt (SwissProt) Secondary ID(s) of Target Chain>
Q4ZFX9,Q53QQ6,Q53RZ4,Q59FI3,Q9Y4K6

> <UniProt (SwissProt) Alternative ID(s) of Target Chain>


> <UniProt (TrEMBL) Submitted Name of Target Chain>


> <UniProt (TrEMBL) Entry Name of Target Chain>


> <UniProt (TrEMBL) Primary ID of Target Chain>


> <UniProt (TrEMBL) Secondary ID(s) of Target Chain>


> <UniProt (TrEMBL) Alternative ID(s) of Target Chain>


$$$$
00240001.cdx
  Mrv0541 10181809492D          

 39 42  0  0  0  0            999 V2000
   -3.5724    2.3240    0.0000 C   0  0  0  0  0  0  0  0  0  0  0  0
   -3.5724    1.4990    0.0000 C   0  0  0  0  0  0  0  0  0  0  0  0
   -2.8579    1.0865    0.0000 C   0  0  0  0  0  0  0  0  0  0  0  0
   -2.1434    1.4990    0.0000 C   0  0  0  0  0  0  0  0  0  0  0  0
   -2.1434    2.3240    0.0000 C   0  0  0  0  0  0  0  0  0  0  0  0
   -2.8579    2.7365    0.0000 C   0  0  0  0  0  0  0  0  0  0  0  0
   -1.4289    1.0865    0.0000 N   0  0  0  0  0  0  0  0  0  0  0  0
   -0.7145    1.4990    0.0000 C   0  0  0  0  0  0  0  0  0  0  0  0
   -0.7145    2.3240    0.0000 C   0  0  0  0  0  0  0  0  0  0  0  0
   -1.4289    2.7365    0.0000 S   0  0  0  0  0  0  0  0  0  0  0  0
   -1.4289    0.2615    0.0000 C   0  0  0  0  0  0  0  0  0  0  0  0
    0.0000    2.7365    0.0000 C   0  0  0  0  0  0  0  0  0  0  0  0
   -1.0164    3.4510    0.0000 O   0  0  0  0  0  0  0  0  0  0  0  0
   -2.0123    3.3199    0.0000 O   0  0  0  0  0  0  0  0  0  0  0  0
   -2.1434   -0.1510    0.0000 C   0  0  0  0  0  0  0  0  0  0  0  0
   -2.1434   -0.9760    0.0000 C   0  0  0  0  0  0  0  0  0  0  0  0
   -1.4289   -1.3885    0.0000 N   0  0  0  0  0  0  0  0  0  0  0  0
   -0.7145   -0.9760    0.0000 C   0  0  0  0  0  0  0  0  0  0  0  0
   -0.7145   -0.1510    0.0000 N   0  0  0  0  0  0  0  0  0  0  0  0
   -2.8579    0.2615    0.0000 Cl  0  0  0  0  0  0  0  0  0  0  0  0
    0.0000   -1.3885    0.0000 N   0  0  0  0  0  0  0  0  0  0  0  0
    0.7145   -0.9760    0.0000 C   0  0  0  0  0  0  0  0  0  0  0  0
    1.4289   -1.3885    0.0000 C   0  0  0  0  0  0  0  0  0  0  0  0
    2.1434   -0.9760    0.0000 C   0  0  0  0  0  0  0  0  0  0  0  0
    2.1434   -0.1510    0.0000 C   0  0  0  0  0  0  0  0  0  0  0  0
    1.4289    0.2615    0.0000 C   0  0  0  0  0  0  0  0  0  0  0  0
    0.7145   -0.1510    0.0000 C   0  0  0  0  0  0  0  0  0  0  0  0
    1.4289   -2.2135    0.0000 O   0  0  0  0  0  0  0  0  0  0  0  0
    2.1434   -2.6260    0.0000 C   0  0  0  0  0  0  0  0  0  0  0  0
    2.8579    0.2615    0.0000 C   0  0  0  0  0  0  0  0  0  0  0  0
    2.8579    1.0865    0.0000 N   0  0  0  0  0  0  0  0  0  0  0  0
    2.1434    1.4990    0.0000 C   0  0  0  0  0  0  0  0  0  0  0  0
    1.4289    1.0865    0.0000 C   0  0  0  0  0  0  0  0  0  0  0  0
    3.5724   -0.1510    0.0000 C   0  0  0  0  0  0  0  0  0  0  0  0
    3.5724    1.4990    0.0000 C   0  0  0  0  0  0  0  0  0  0  0  0
    3.5724    2.3240    0.0000 C   0  0  0  0  0  0  0  0  0  0  0  0
    3.5724    0.6740    0.0000 C   0  0  0  0  0  0  0  0  0  0  0  0
    2.1434   -3.4510    0.0000 C   0  0  0  0  0  0  0  0  0  0  0  0
    2.8579   -2.2135    0.0000 C   0  0  0  0  0  0  0  0  0  0  0  0
  1  2  4  0  0  0  0
  2  3  4  0  0  0  0
  3  4  4  0  0  0  0
  4  5  4  0  0  0  0
  5  6  4  0  0  0  0
  6  1  4  0  0  0  0
  4  7  1  0  0  0  0
  8  9  1  0  0  0  0
  9 10  1  0  0  0  0
 10  5  1  0  0  0  0
  7 11  1  0  0  0  0
  9 12  1  0  0  0  0
 10 13  2  0  0  0  0
 10 14  2  0  0  0  0
 11 15  4  0  0  0  0
 15 16  4  0  0  0  0
 16 17  4  0  0  0  0
 17 18  4  0  0  0  0
 18 19  4  0  0  0  0
 19 11  4  0  0  0  0
 15 20  1  0  0  0  0
 18 21  1  0  0  0  0
 21 22  1  0  0  0  0
 22 23  4  0  0  0  0
 23 24  4  0  0  0  0
 24 25  4  0  0  0  0
 25 26  4  0  0  0  0
 26 27  4  0  0  0  0
 27 22  4  0  0  0  0
 23 28  1  0  0  0  0
 28 29  1  0  0  0  0
 25 30  1  0  0  0  0
 30 31  1  0  0  0  0
 31 32  1  0  0  0  0
 32 33  1  0  0  0  0
 33 26  1  0  0  0  0
 30 34  1  0  0  0  0
 31 35  1  0  0  0  0
 35 36  1  0  0  0  0
 30 37  1  0  0  0  0
 29 38  1  0  0  0  0
 29 39  1  0  0  0  0
M  END
> <From>
www.bindingDB.org

> <BindingDB Reactant_set_id>
490516

> <Ligand InChI>
InChI=1S/C29H38ClN5O3S/c1-8-35-14-13-20-15-24(25(38-18(2)3)16-21(20)29(35,6)7)33-28-31-17-22(30)27(34-28)32-23-11-9-10-12-26(23)39(36,37)19(4)5/h9-12,15-19H,8,13-14H2,1-7H3,(H2,31,32,33,34)

> <Ligand InChI Key>
ASUISDTWZJUOCV-UHFFFAOYSA-N

> <BindingDB MonomerID>
244020

> <BindingDB Ligand Name>
5-chloro-N4-(2-(isopropylsulfonyl)phenyl)-N2-(2-ethyl-7-isopropoxy-1,1-dimethyl-1,2,3,4-tetrahydroisoquinolin-6-yl)pyrimidine-2,4-diamine::US10053458, 79

> <Target Name Assigned by Curator or DataSource>
ALK tyrosine kinase receptor

> <Target Source Organism According to Curator or DataSource>
Homo sapiens

> <Ki (nM)>


> <IC50 (nM)>
<10.00

> <Kd (nM)>


> <EC50 (nM)>


> <kon (M-1-s-1)>


> <koff (s-1)>


> <pH>


> <Temp C>
25.00

> <Curation/DataSource>
US Patent

> <Article DOI>


> <PMID>


> <PubChem AID>


> <Patent Number>
US10053458

> <Authors>
Yun, CS; Kim, HR; Cho, SY; Jung, HJ; Lee, K; Chae, CH; Lee, CO; Park, CH; Kim, P; Hwang, JY; Ha, JD; Ahn, SJ

> <Institution>
KOREA RESEARCH INSTITUTE OF CHEMICAL TECHNOLOGY

> <Link to Ligand in BindingDB>
http://www.bindingdb.org/bind/chemsearch/marvin/MolStructure.jsp?monomerid=244020

> <Link to Ligand-Target Pair in BindingDB>
http://www.bindingdb.org/jsp/dbsearch/PrimarySearch_ki.jsp?energyterm=kJ/mole&tag=pol&polymerid=5809&target=ALK+tyrosine+kinase+receptor&column=ki&startPg=0&Increment=50&submit=Search

> <Link to Ligand-Target Pair in BindingDB>
http://www.bindingdb.org/jsp/dbsearch/PrimarySearch_ki.jsp?energyterm=kJ/mole&tag=r21&monomerid=244020&enzyme=ALK+tyrosine+kinase+receptor&column=ki&startPg=0&Increment=50&submit=Search

> <Ligand HET ID in PDB>


> <PDB ID(s) for Ligand-Target Complex>


> <PubChem CID>
129048560

> <PubChem SID>
376221851

> <ChEBI ID of Ligand>


> <ChEMBL ID of Ligand>


> <DrugBank ID of Ligand>


> <IUPHAR_GRAC ID of Ligand>


> <KEGG ID of Ligand>


> <ZINC ID of Ligand>


> <Number of Protein Chains in Target (>1 implies a multichain complex)>
1

> <BindingDB Target Chain Sequence>
MGAIGLLWLLPLLLSTAAVGSGMGTGQRAGSPAAGPPLQPREPLSYSRLQRKSLAVDFVVPSLFRVYARDLLLPPSSSELKAGRPEARGSLALDCAPLLRLLGPAPGVSWTAGSPAPAEARTLSRVLKGGSVRKLRRAKQLVLELGEEAILEGCVGPPGEAAVGLLQFNLSELFSWWIRQGEGRLRIRLMPEKKASEVGREGRLSAAIRASQPRLLFQIFGTGHSSLESPTNMPSPSPDYFTWNLTWIMKDSFPFLSHRSRYGLECSFDFPCELEYSPPLHDLRNQSWSWRRIPSEEASQMDLLDGPGAERSKEMPRGSFLLLNTSADSKHTILSPWMRSSSEHCTLAVSVHRHLQPSGRYIAQLLPHNEAAREILLMPTPGKHGWTVLQGRIGRPDNPFRVALEYISSGNRSLSAVDFFALKNCSEGTSPGSKMALQSSFTCWNGTVLQLGQACDFHQDCAQGEDESQMCRKLPVGFYCNFEDGFCGWTQGTLSPHTPQWQVRTLKDARFQDHQDHALLLSTTDVPASESATVTSATFPAPIKSSPCELRMSWLIRGVLRGNVSLVLVENKTGKEQGRMVWHVAAYEGLSLWQWMVLPLLDVSDRFWLQMVAWWGQGSRAIVAFDNISISLDCYLTISGEDKILQNTAPKSRNLFERNPNKELKPGENSPRQTPIFDPTVHWLFTTCGASGPHGPTQAQCNNAYQNSNLSVEVGSEGPLKGIQIWKVPATDTYSISGYGAAGGKGGKNTMMRSHGVSVLGIFNLEKDDMLYILVGQQGEDACPSTNQLIQKVCIGENNVIEEEIRVNRSVHEWAGGGGGGGGATYVFKMKDGVPVPLIIAAGGGGRAYGAKTDTFHPERLENNSSVLGLNGNSGAAGGGGGWNDNTSLLWAGKSLQEGATGGHSCPQAMKKWGWETRGGFGGGGGGCSSGGGGGGYIGGNAASNNDPEMDGEDGVSFISPLGILYTPALKVMEGHGEVNIKHYLNCSHCEVDECHMDPESHKVICFCDHGTVLAEDGVSCIVSPTPEPHLPLSLILSVVTSALVAALVLAFSGIMIVYRRKHQELQAMQMELQSPEYKLSKLRTSTIMTDYNPNYCFAGKTSSISDLKEVPRKNITLIRGLGHGAFGEVYEGQVSGMPNDPSPLQVAVKTLPEVCSEQDELDFLMEALIISKFNHQNIVRCIGVSLQSLPRFILLELMAGGDLKSFLRETRPRPSQPSSLAMLDLLHVARDIACGCQYLEENHFIHRDIAARNCLLTCPGPGRVAKIGDFGMARDIYRASYYRKGGCAMLPVKWMPPEAFMEGIFTSKTDTWSFGVLLWEIFSLGYMPYPSKSNQEVLEFVTSGGRMDPPKNCPGPVYRIMTQCWQHQPEDRPNFAIILERIEYCTQDPDVINTALPIEYGPLVEEEEKVPVRPKDPEGVPPLLVSQQAKREEERSPAAPPPLPTTSSGKAAKKPTAAEISVRVPRGPAVEGGHVNMAFSQSNPPSELHKVHGSRNKPTSLWNPTYGSWFTEKPTKKNNPIAKKEPHDRGNLGLEGSCTVPPNVATGRLPGASLLLEPSSLTANMKEVPLFRLRHFPCGNVNYGYQQQGLPLEAATAPGAGHYEDTILKSKNSMNQPGP

> <PDB ID(s) of Target Chain>
2XB7,2XBA,3AOX,5FTO,5FTQ,6E0R,6EBW,6EDL,6MX8

> <UniProt (SwissProt) Recommended Name of Target Chain>
ALK tyrosine kinase receptor

> <UniProt (SwissProt) Entry Name of Target Chain>
ALK_HUMAN

> <UniProt (SwissProt) Primary ID of Target Chain>
Q9UM73

> <UniProt (SwissProt) Secondary ID(s) of Target Chain>
Q4ZFX9,Q53QQ6,Q53RZ4,Q59FI3,Q9Y4K6

> <UniProt (SwissProt) Alternative ID(s) of Target Chain>


> <UniProt (TrEMBL) Submitted Name of Target Chain>


> <UniProt (TrEMBL) Entry Name of Target Chain>


> <UniProt (TrEMBL) Primary ID of Target Chain>


> <UniProt (TrEMBL) Secondary ID(s) of Target Chain>


> <UniProt (TrEMBL) Alternative ID(s) of Target Chain>


$$$$
00241001.cdx
  Mrv0541 10181809492D          

 37 40  0  0  0  0            999 V2000
   -3.5724    2.3240    0.0000 C   0  0  0  0  0  0  0  0  0  0  0  0
   -3.5724    1.4990    0.0000 C   0  0  0  0  0  0  0  0  0  0  0  0
   -2.8579    1.0865    0.0000 C   0  0  0  0  0  0  0  0  0  0  0  0
   -2.1434    1.4990    0.0000 C   0  0  0  0  0  0  0  0  0  0  0  0
   -2.1434    2.3240    0.0000 C   0  0  0  0  0  0  0  0  0  0  0  0
   -2.8579    2.7365    0.0000 C   0  0  0  0  0  0  0  0  0  0  0  0
   -1.4289    1.0865    0.0000 N   0  0  0  0  0  0  0  0  0  0  0  0
   -0.7145    1.4990    0.0000 C   0  0  0  0  0  0  0  0  0  0  0  0
   -0.7145    2.3240    0.0000 C   0  0  0  0  0  0  0  0  0  0  0  0
   -1.4289    2.7365    0.0000 S   0  0  0  0  0  0  0  0  0  0  0  0
   -1.4289    0.2615    0.0000 C   0  0  0  0  0  0  0  0  0  0  0  0
    0.0000    2.7365    0.0000 C   0  0  0  0  0  0  0  0  0  0  0  0
   -1.0164    3.4510    0.0000 O   0  0  0  0  0  0  0  0  0  0  0  0
   -2.0123    3.3199    0.0000 O   0  0  0  0  0  0  0  0  0  0  0  0
   -2.1434   -0.1510    0.0000 C   0  0  0  0  0  0  0  0  0  0  0  0
   -2.1434   -0.9760    0.0000 C   0  0  0  0  0  0  0  0  0  0  0  0
   -1.4289   -1.3885    0.0000 N   0  0  0  0  0  0  0  0  0  0  0  0
   -0.7145   -0.9760    0.0000 C   0  0  0  0  0  0  0  0  0  0  0  0
   -0.7145   -0.1510    0.0000 N   0  0  0  0  0  0  0  0  0  0  0  0
   -2.8579    0.2615    0.0000 Cl  0  0  0  0  0  0  0  0  0  0  0  0
    0.0000   -1.3885    0.0000 N   0  0  0  0  0  0  0  0  0  0  0  0
    0.7145   -0.9760    0.0000 C   0  0  0  0  0  0  0  0  0  0  0  0
    1.4289   -1.3885    0.0000 C   0  0  0  0  0  0  0  0  0  0  0  0
    2.1434   -0.9760    0.0000 C   0  0  0  0  0  0  0  0  0  0  0  0
    2.1434   -0.1510    0.0000 C   0  0  0  0  0  0  0  0  0  0  0  0
    1.4289    0.2615    0.0000 C   0  0  0  0  0  0  0  0  0  0  0  0
    0.7145   -0.1510    0.0000 C   0  0  0  0  0  0  0  0  0  0  0  0
    1.4289   -2.2135    0.0000 O   0  0  0  0  0  0  0  0  0  0  0  0
    2.1434   -2.6260    0.0000 C   0  0  0  0  0  0  0  0  0  0  0  0
    2.8579    0.2615    0.0000 C   0  0  0  0  0  0  0  0  0  0  0  0
    2.8579    1.0865    0.0000 C   0  0  0  0  0  0  0  0  0  0  0  0
    2.1434    1.4990    0.0000 N   0  0  0  0  0  0  0  0  0  0  0  0
    1.4289    1.0865    0.0000 C   0  0  0  0  0  0  0  0  0  0  0  0
    3.5724   -0.1510    0.0000 C   0  0  0  0  0  0  0  0  0  0  0  0
    3.5724    0.6740    0.0000 C   0  0  0  0  0  0  0  0  0  0  0  0
    2.1434   -3.4510    0.0000 C   0  0  0  0  0  0  0  0  0  0  0  0
    2.8579   -2.2135    0.0000 C   0  0  0  0  0  0  0  0  0  0  0  0
  1  2  4  0  0  0  0
  2  3  4  0  0  0  0
  3  4  4  0  0  0  0
  4  5  4  0  0  0  0
  5  6  4  0  0  0  0
  6  1  4  0  0  0  0
  4  7  1  0  0  0  0
  8  9  1  0  0  0  0
  9 10  1  0  0  0  0
 10  5  1  0  0  0  0
  7 11  1  0  0  0  0
  9 12  1  0  0  0  0
 10 13  2  0  0  0  0
 10 14  2  0  0  0  0
 11 15  4  0  0  0  0
 15 16  4  0  0  0  0
 16 17  4  0  0  0  0
 17 18  4  0  0  0  0
 18 19  4  0  0  0  0
 19 11  4  0  0  0  0
 15 20  1  0  0  0  0
 18 21  1  0  0  0  0
 21 22  1  0  0  0  0
 22 23  4  0  0  0  0
 23 24  4  0  0  0  0
 24 25  4  0  0  0  0
 25 26  4  0  0  0  0
 26 27  4  0  0  0  0
 27 22  4  0  0  0  0
 23 28  1  0  0  0  0
 28 29  1  0  0  0  0
 25 30  1  0  0  0  0
 30 31  1  0  0  0  0
 31 32  1  0  0  0  0
 32 33  1  0  0  0  0
 33 26  1  0  0  0  0
 30 34  1  0  0  0  0
 30 35  1  0  0  0  0
 29 36  1  0  0  0  0
 29 37  1  0  0  0  0
M  END
> <From>
www.bindingDB.org

> <BindingDB Reactant_set_id>
490518

> <Ligand InChI>
InChI=1S/C27H34ClN5O3S/c1-16(2)36-23-12-19-18(13-29-15-27(19,5)6)11-22(23)32-26-30-14-20(28)25(33-26)31-21-9-7-8-10-24(21)37(34,35)17(3)4/h7-12,14,16-17,29H,13,15H2,1-6H3,(H2,30,31,32,33)

> <Ligand InChI Key>
WHKQAKZQBVKJRS-UHFFFAOYSA-N

> <BindingDB MonomerID>
244021

> <BindingDB Ligand Name>
5-chloro-N4-(2-(isopropylsulfonyl)phenyl)-N2-(6-isopropoxy-4,4-dimethyl-1,2,3,4-tetrahydroisoquinolin-7-yl)pyrimidine-2,4-diamine::US10053458, 80

> <Target Name Assigned by Curator or DataSource>
ALK tyrosine kinase receptor

> <Target Source Organism According to Curator or DataSource>
Homo sapiens

> <Ki (nM)>


> <IC50 (nM)>
<10.00

> <Kd (nM)>


> <EC50 (nM)>


> <kon (M-1-s-1)>


> <koff (s-1)>


> <pH>


> <Temp C>
25.00

> <Curation/DataSource>
US Patent

> <Article DOI>


> <PMID>


> <PubChem AID>


> <Patent Number>
US10053458

> <Authors>
Yun, CS; Kim, HR; Cho, SY; Jung, HJ; Lee, K; Chae, CH; Lee, CO; Park, CH; Kim, P; Hwang, JY; Ha, JD; Ahn, SJ

> <Institution>
KOREA RESEARCH INSTITUTE OF CHEMICAL TECHNOLOGY

> <Link to Ligand in BindingDB>
http://www.bindingdb.org/bind/chemsearch/marvin/MolStructure.jsp?monomerid=244021

> <Link to Ligand-Target Pair in BindingDB>
http://www.bindingdb.org/jsp/dbsearch/PrimarySearch_ki.jsp?energyterm=kJ/mole&tag=pol&polymerid=5809&target=ALK+tyrosine+kinase+receptor&column=ki&startPg=0&Increment=50&submit=Search

> <Link to Ligand-Target Pair in BindingDB>
http://www.bindingdb.org/jsp/dbsearch/PrimarySearch_ki.jsp?energyterm=kJ/mole&tag=r21&monomerid=244021&enzyme=ALK+tyrosine+kinase+receptor&column=ki&startPg=0&Increment=50&submit=Search

> <Ligand HET ID in PDB>


> <PDB ID(s) for Ligand-Target Complex>


> <PubChem CID>
129048503

> <PubChem SID>
376221852

> <ChEBI ID of Ligand>


> <ChEMBL ID of Ligand>


> <DrugBank ID of Ligand>


> <IUPHAR_GRAC ID of Ligand>


> <KEGG ID of Ligand>


> <ZINC ID of Ligand>


> <Number of Protein Chains in Target (>1 implies a multichain complex)>
1

> <BindingDB Target Chain Sequence>
MGAIGLLWLLPLLLSTAAVGSGMGTGQRAGSPAAGPPLQPREPLSYSRLQRKSLAVDFVVPSLFRVYARDLLLPPSSSELKAGRPEARGSLALDCAPLLRLLGPAPGVSWTAGSPAPAEARTLSRVLKGGSVRKLRRAKQLVLELGEEAILEGCVGPPGEAAVGLLQFNLSELFSWWIRQGEGRLRIRLMPEKKASEVGREGRLSAAIRASQPRLLFQIFGTGHSSLESPTNMPSPSPDYFTWNLTWIMKDSFPFLSHRSRYGLECSFDFPCELEYSPPLHDLRNQSWSWRRIPSEEASQMDLLDGPGAERSKEMPRGSFLLLNTSADSKHTILSPWMRSSSEHCTLAVSVHRHLQPSGRYIAQLLPHNEAAREILLMPTPGKHGWTVLQGRIGRPDNPFRVALEYISSGNRSLSAVDFFALKNCSEGTSPGSKMALQSSFTCWNGTVLQLGQACDFHQDCAQGEDESQMCRKLPVGFYCNFEDGFCGWTQGTLSPHTPQWQVRTLKDARFQDHQDHALLLSTTDVPASESATVTSATFPAPIKSSPCELRMSWLIRGVLRGNVSLVLVENKTGKEQGRMVWHVAAYEGLSLWQWMVLPLLDVSDRFWLQMVAWWGQGSRAIVAFDNISISLDCYLTISGEDKILQNTAPKSRNLFERNPNKELKPGENSPRQTPIFDPTVHWLFTTCGASGPHGPTQAQCNNAYQNSNLSVEVGSEGPLKGIQIWKVPATDTYSISGYGAAGGKGGKNTMMRSHGVSVLGIFNLEKDDMLYILVGQQGEDACPSTNQLIQKVCIGENNVIEEEIRVNRSVHEWAGGGGGGGGATYVFKMKDGVPVPLIIAAGGGGRAYGAKTDTFHPERLENNSSVLGLNGNSGAAGGGGGWNDNTSLLWAGKSLQEGATGGHSCPQAMKKWGWETRGGFGGGGGGCSSGGGGGGYIGGNAASNNDPEMDGEDGVSFISPLGILYTPALKVMEGHGEVNIKHYLNCSHCEVDECHMDPESHKVICFCDHGTVLAEDGVSCIVSPTPEPHLPLSLILSVVTSALVAALVLAFSGIMIVYRRKHQELQAMQMELQSPEYKLSKLRTSTIMTDYNPNYCFAGKTSSISDLKEVPRKNITLIRGLGHGAFGEVYEGQVSGMPNDPSPLQVAVKTLPEVCSEQDELDFLMEALIISKFNHQNIVRCIGVSLQSLPRFILLELMAGGDLKSFLRETRPRPSQPSSLAMLDLLHVARDIACGCQYLEENHFIHRDIAARNCLLTCPGPGRVAKIGDFGMARDIYRASYYRKGGCAMLPVKWMPPEAFMEGIFTSKTDTWSFGVLLWEIFSLGYMPYPSKSNQEVLEFVTSGGRMDPPKNCPGPVYRIMTQCWQHQPEDRPNFAIILERIEYCTQDPDVINTALPIEYGPLVEEEEKVPVRPKDPEGVPPLLVSQQAKREEERSPAAPPPLPTTSSGKAAKKPTAAEISVRVPRGPAVEGGHVNMAFSQSNPPSELHKVHGSRNKPTSLWNPTYGSWFTEKPTKKNNPIAKKEPHDRGNLGLEGSCTVPPNVATGRLPGASLLLEPSSLTANMKEVPLFRLRHFPCGNVNYGYQQQGLPLEAATAPGAGHYEDTILKSKNSMNQPGP

> <PDB ID(s) of Target Chain>
2XB7,2XBA,3AOX,5FTO,5FTQ,6E0R,6EBW,6EDL,6MX8

> <UniProt (SwissProt) Recommended Name of Target Chain>
ALK tyrosine kinase receptor

> <UniProt (SwissProt) Entry Name of Target Chain>
ALK_HUMAN

> <UniProt (SwissProt) Primary ID of Target Chain>
Q9UM73

> <UniProt (SwissProt) Secondary ID(s) of Target Chain>
Q4ZFX9,Q53QQ6,Q53RZ4,Q59FI3,Q9Y4K6

> <UniProt (SwissProt) Alternative ID(s) of Target Chain>


> <UniProt (TrEMBL) Submitted Name of Target Chain>


> <UniProt (TrEMBL) Entry Name of Target Chain>


> <UniProt (TrEMBL) Primary ID of Target Chain>


> <UniProt (TrEMBL) Secondary ID(s) of Target Chain>


> <UniProt (TrEMBL) Alternative ID(s) of Target Chain>


$$$$
00242001.cdx
  Mrv0541 10181809492D          

 38 41  0  0  0  0            999 V2000
   -3.5724    2.3240    0.0000 C   0  0  0  0  0  0  0  0  0  0  0  0
   -3.5724    1.4990    0.0000 C   0  0  0  0  0  0  0  0  0  0  0  0
   -2.8579    1.0865    0.0000 C   0  0  0  0  0  0  0  0  0  0  0  0
   -2.1434    1.4990    0.0000 C   0  0  0  0  0  0  0  0  0  0  0  0
   -2.1434    2.3240    0.0000 C   0  0  0  0  0  0  0  0  0  0  0  0
   -2.8579    2.7365    0.0000 C   0  0  0  0  0  0  0  0  0  0  0  0
   -1.4289    1.0865    0.0000 N   0  0  0  0  0  0  0  0  0  0  0  0
   -0.7145    1.4990    0.0000 C   0  0  0  0  0  0  0  0  0  0  0  0
   -0.7145    2.3240    0.0000 C   0  0  0  0  0  0  0  0  0  0  0  0
   -1.4289    2.7365    0.0000 S   0  0  0  0  0  0  0  0  0  0  0  0
   -1.4289    0.2615    0.0000 C   0  0  0  0  0  0  0  0  0  0  0  0
    0.0000    2.7365    0.0000 C   0  0  0  0  0  0  0  0  0  0  0  0
   -1.0164    3.4510    0.0000 O   0  0  0  0  0  0  0  0  0  0  0  0
   -2.0123    3.3199    0.0000 O   0  0  0  0  0  0  0  0  0  0  0  0
   -2.1434   -0.1510    0.0000 C   0  0  0  0  0  0  0  0  0  0  0  0
   -2.1434   -0.9760    0.0000 C   0  0  0  0  0  0  0  0  0  0  0  0
   -1.4289   -1.3885    0.0000 N   0  0  0  0  0  0  0  0  0  0  0  0
   -0.7145   -0.9760    0.0000 C   0  0  0  0  0  0  0  0  0  0  0  0
   -0.7145   -0.1510    0.0000 N   0  0  0  0  0  0  0  0  0  0  0  0
   -2.8579    0.2615    0.0000 Cl  0  0  0  0  0  0  0  0  0  0  0  0
    0.0000   -1.3885    0.0000 N   0  0  0  0  0  0  0  0  0  0  0  0
    0.7145   -0.9760    0.0000 C   0  0  0  0  0  0  0  0  0  0  0  0
    1.4289   -1.3885    0.0000 C   0  0  0  0  0  0  0  0  0  0  0  0
    2.1434   -0.9760    0.0000 C   0  0  0  0  0  0  0  0  0  0  0  0
    2.1434   -0.1510    0.0000 C   0  0  0  0  0  0  0  0  0  0  0  0
    1.4289    0.2615    0.0000 C   0  0  0  0  0  0  0  0  0  0  0  0
    0.7145   -0.1510    0.0000 C   0  0  0  0  0  0  0  0  0  0  0  0
    1.4289   -2.2135    0.0000 O   0  0  0  0  0  0  0  0  0  0  0  0
    2.1434   -2.6260    0.0000 C   0  0  0  0  0  0  0  0  0  0  0  0
    2.8579    0.2615    0.0000 C   0  0  0  0  0  0  0  0  0  0  0  0
    2.8579    1.0865    0.0000 C   0  0  0  0  0  0  0  0  0  0  0  0
    2.1434    1.4990    0.0000 N   0  0  0  0  0  0  0  0  0  0  0  0
    1.4289    1.0865    0.0000 C   0  0  0  0  0  0  0  0  0  0  0  0
    3.5724   -0.1510    0.0000 C   0  0  0  0  0  0  0  0  0  0  0  0
    3.5724    0.6740    0.0000 C   0  0  0  0  0  0  0  0  0  0  0  0
    2.1434   -3.4510    0.0000 C   0  0  0  0  0  0  0  0  0  0  0  0
    2.1434    2.3240    0.0000 C   0  0  0  0  0  0  0  0  0  0  0  0
    2.8579    2.7365    0.0000 C   0  0  0  0  0  0  0  0  0  0  0  0
  1  2  4  0  0  0  0
  2  3  4  0  0  0  0
  3  4  4  0  0  0  0
  4  5  4  0  0  0  0
  5  6  4  0  0  0  0
  6  1  4  0  0  0  0
  4  7  1  0  0  0  0
  8  9  1  0  0  0  0
  9 10  1  0  0  0  0
 10  5  1  0  0  0  0
  7 11  1  0  0  0  0
  9 12  1  0  0  0  0
 10 13  2  0  0  0  0
 10 14  2  0  0  0  0
 11 15  4  0  0  0  0
 15 16  4  0  0  0  0
 16 17  4  0  0  0  0
 17 18  4  0  0  0  0
 18 19  4  0  0  0  0
 19 11  4  0  0  0  0
 15 20  1  0  0  0  0
 18 21  1  0  0  0  0
 21 22  1  0  0  0  0
 22 23  4  0  0  0  0
 23 24  4  0  0  0  0
 24 25  4  0  0  0  0
 25 26  4  0  0  0  0
 26 27  4  0  0  0  0
 27 22  4  0  0  0  0
 23 28  1  0  0  0  0
 28 29  1  0  0  0  0
 25 30  1  0  0  0  0
 30 31  1  0  0  0  0
 31 32  1  0  0  0  0
 32 33  1  0  0  0  0
 33 26  1  0  0  0  0
 30 34  1  0  0  0  0
 30 35  1  0  0  0  0
 29 36  1  0  0  0  0
 32 37  1  0  0  0  0
 37 38  1  0  0  0  0
M  END
> <From>
www.bindingDB.org

> <BindingDB Reactant_set_id>
490520

> <Ligand InChI>
InChI=1S/C28H36ClN5O3S/c1-7-34-16-19-13-23(24(37-8-2)14-20(19)28(5,6)17-34)32-27-30-15-21(29)26(33-27)31-22-11-9-10-12-25(22)38(35,36)18(3)4/h9-15,18H,7-8,16-17H2,1-6H3,(H2,30,31,32,33)

> <Ligand InChI Key>
NDZWSLCADDOVRZ-UHFFFAOYSA-N

> <BindingDB MonomerID>
244022

> <BindingDB Ligand Name>
5-chloro-N4-(2-(isopropylsulfonyl)phenyl)-N2-(6-ethoxy-2-ethyl-4,4-dimethyl-1,2,3,4-tetrahydroisoquinolin-7-yl)pyrimidine-2,4-diamine::US10053458, 81

> <Target Name Assigned by Curator or DataSource>
ALK tyrosine kinase receptor

> <Target Source Organism According to Curator or DataSource>
Homo sapiens

> <Ki (nM)>


> <IC50 (nM)>
<10.00

> <Kd (nM)>


> <EC50 (nM)>


> <kon (M-1-s-1)>


> <koff (s-1)>


> <pH>


> <Temp C>
25.00

> <Curation/DataSource>
US Patent

> <Article DOI>


> <PMID>


> <PubChem AID>


> <Patent Number>
US10053458

> <Authors>
Yun, CS; Kim, HR; Cho, SY; Jung, HJ; Lee, K; Chae, CH; Lee, CO; Park, CH; Kim, P; Hwang, JY; Ha, JD; Ahn, SJ

> <Institution>
KOREA RESEARCH INSTITUTE OF CHEMICAL TECHNOLOGY

> <Link to Ligand in BindingDB>
http://www.bindingdb.org/bind/chemsearch/marvin/MolStructure.jsp?monomerid=244022

> <Link to Ligand-Target Pair in BindingDB>
http://www.bindingdb.org/jsp/dbsearch/PrimarySearch_ki.jsp?energyterm=kJ/mole&tag=pol&polymerid=5809&target=ALK+tyrosine+kinase+receptor&column=ki&startPg=0&Increment=50&submit=Search

> <Link to Ligand-Target Pair in BindingDB>
http://www.bindingdb.org/jsp/dbsearch/PrimarySearch_ki.jsp?energyterm=kJ/mole&tag=r21&monomerid=244022&enzyme=ALK+tyrosine+kinase+receptor&column=ki&startPg=0&Increment=50&submit=Search

> <Ligand HET ID in PDB>


> <PDB ID(s) for Ligand-Target Complex>


> <PubChem CID>
129048449

> <PubChem SID>
376221853

> <ChEBI ID of Ligand>


> <ChEMBL ID of Ligand>


> <DrugBank ID of Ligand>


> <IUPHAR_GRAC ID of Ligand>


> <KEGG ID of Ligand>


> <ZINC ID of Ligand>


> <Number of Protein Chains in Target (>1 implies a multichain complex)>
1

> <BindingDB Target Chain Sequence>
MGAIGLLWLLPLLLSTAAVGSGMGTGQRAGSPAAGPPLQPREPLSYSRLQRKSLAVDFVVPSLFRVYARDLLLPPSSSELKAGRPEARGSLALDCAPLLRLLGPAPGVSWTAGSPAPAEARTLSRVLKGGSVRKLRRAKQLVLELGEEAILEGCVGPPGEAAVGLLQFNLSELFSWWIRQGEGRLRIRLMPEKKASEVGREGRLSAAIRASQPRLLFQIFGTGHSSLESPTNMPSPSPDYFTWNLTWIMKDSFPFLSHRSRYGLECSFDFPCELEYSPPLHDLRNQSWSWRRIPSEEASQMDLLDGPGAERSKEMPRGSFLLLNTSADSKHTILSPWMRSSSEHCTLAVSVHRHLQPSGRYIAQLLPHNEAAREILLMPTPGKHGWTVLQGRIGRPDNPFRVALEYISSGNRSLSAVDFFALKNCSEGTSPGSKMALQSSFTCWNGTVLQLGQACDFHQDCAQGEDESQMCRKLPVGFYCNFEDGFCGWTQGTLSPHTPQWQVRTLKDARFQDHQDHALLLSTTDVPASESATVTSATFPAPIKSSPCELRMSWLIRGVLRGNVSLVLVENKTGKEQGRMVWHVAAYEGLSLWQWMVLPLLDVSDRFWLQMVAWWGQGSRAIVAFDNISISLDCYLTISGEDKILQNTAPKSRNLFERNPNKELKPGENSPRQTPIFDPTVHWLFTTCGASGPHGPTQAQCNNAYQNSNLSVEVGSEGPLKGIQIWKVPATDTYSISGYGAAGGKGGKNTMMRSHGVSVLGIFNLEKDDMLYILVGQQGEDACPSTNQLIQKVCIGENNVIEEEIRVNRSVHEWAGGGGGGGGATYVFKMKDGVPVPLIIAAGGGGRAYGAKTDTFHPERLENNSSVLGLNGNSGAAGGGGGWNDNTSLLWAGKSLQEGATGGHSCPQAMKKWGWETRGGFGGGGGGCSSGGGGGGYIGGNAASNNDPEMDGEDGVSFISPLGILYTPALKVMEGHGEVNIKHYLNCSHCEVDECHMDPESHKVICFCDHGTVLAEDGVSCIVSPTPEPHLPLSLILSVVTSALVAALVLAFSGIMIVYRRKHQELQAMQMELQSPEYKLSKLRTSTIMTDYNPNYCFAGKTSSISDLKEVPRKNITLIRGLGHGAFGEVYEGQVSGMPNDPSPLQVAVKTLPEVCSEQDELDFLMEALIISKFNHQNIVRCIGVSLQSLPRFILLELMAGGDLKSFLRETRPRPSQPSSLAMLDLLHVARDIACGCQYLEENHFIHRDIAARNCLLTCPGPGRVAKIGDFGMARDIYRASYYRKGGCAMLPVKWMPPEAFMEGIFTSKTDTWSFGVLLWEIFSLGYMPYPSKSNQEVLEFVTSGGRMDPPKNCPGPVYRIMTQCWQHQPEDRPNFAIILERIEYCTQDPDVINTALPIEYGPLVEEEEKVPVRPKDPEGVPPLLVSQQAKREEERSPAAPPPLPTTSSGKAAKKPTAAEISVRVPRGPAVEGGHVNMAFSQSNPPSELHKVHGSRNKPTSLWNPTYGSWFTEKPTKKNNPIAKKEPHDRGNLGLEGSCTVPPNVATGRLPGASLLLEPSSLTANMKEVPLFRLRHFPCGNVNYGYQQQGLPLEAATAPGAGHYEDTILKSKNSMNQPGP

> <PDB ID(s) of Target Chain>
2XB7,2XBA,3AOX,5FTO,5FTQ,6E0R,6EBW,6EDL,6MX8

> <UniProt (SwissProt) Recommended Name of Target Chain>
ALK tyrosine kinase receptor

> <UniProt (SwissProt) Entry Name of Target Chain>
ALK_HUMAN

> <UniProt (SwissProt) Primary ID of Target Chain>
Q9UM73

> <UniProt (SwissProt) Secondary ID(s) of Target Chain>
Q4ZFX9,Q53QQ6,Q53RZ4,Q59FI3,Q9Y4K6

> <UniProt (SwissProt) Alternative ID(s) of Target Chain>


> <UniProt (TrEMBL) Submitted Name of Target Chain>


> <UniProt (TrEMBL) Entry Name of Target Chain>


> <UniProt (TrEMBL) Primary ID of Target Chain>


> <UniProt (TrEMBL) Secondary ID(s) of Target Chain>


> <UniProt (TrEMBL) Alternative ID(s) of Target Chain>


$$$$
00247001.cdx
  Mrv0541 10181809492D          

 39 42  0  0  0  0            999 V2000
   -3.5724    2.3240    0.0000 C   0  0  0  0  0  0  0  0  0  0  0  0
   -3.5724    1.4990    0.0000 C   0  0  0  0  0  0  0  0  0  0  0  0
   -2.8579    1.0865    0.0000 C   0  0  0  0  0  0  0  0  0  0  0  0
   -2.1434    1.4990    0.0000 C   0  0  0  0  0  0  0  0  0  0  0  0
   -2.1434    2.3240    0.0000 C   0  0  0  0  0  0  0  0  0  0  0  0
   -2.8579    2.7365    0.0000 C   0  0  0  0  0  0  0  0  0  0  0  0
   -1.4289    1.0865    0.0000 N   0  0  0  0  0  0  0  0  0  0  0  0
   -0.7145    1.4990    0.0000 C   0  0  0  0  0  0  0  0  0  0  0  0
   -0.7145    2.3240    0.0000 C   0  0  0  0  0  0  0  0  0  0  0  0
   -1.4289    2.7365    0.0000 S   0  0  0  0  0  0  0  0  0  0  0  0
   -1.4289    0.2615    0.0000 C   0  0  0  0  0  0  0  0  0  0  0  0
    0.0000    2.7365    0.0000 C   0  0  0  0  0  0  0  0  0  0  0  0
   -1.0164    3.4510    0.0000 O   0  0  0  0  0  0  0  0  0  0  0  0
   -2.0123    3.3199    0.0000 O   0  0  0  0  0  0  0  0  0  0  0  0
   -2.1434   -0.1510    0.0000 C   0  0  0  0  0  0  0  0  0  0  0  0
   -2.1434   -0.9760    0.0000 C   0  0  0  0  0  0  0  0  0  0  0  0
   -1.4289   -1.3885    0.0000 N   0  0  0  0  0  0  0  0  0  0  0  0
   -0.7145   -0.9760    0.0000 C   0  0  0  0  0  0  0  0  0  0  0  0
   -0.7145   -0.1510    0.0000 N   0  0  0  0  0  0  0  0  0  0  0  0
   -2.8579    0.2615    0.0000 Cl  0  0  0  0  0  0  0  0  0  0  0  0
    0.0000   -1.3885    0.0000 N   0  0  0  0  0  0  0  0  0  0  0  0
    0.7145   -0.9760    0.0000 C   0  0  0  0  0  0  0  0  0  0  0  0
    1.4289   -1.3885    0.0000 C   0  0  0  0  0  0  0  0  0  0  0  0
    2.1434   -0.9760    0.0000 C   0  0  0  0  0  0  0  0  0  0  0  0
    2.1434   -0.1510    0.0000 C   0  0  0  0  0  0  0  0  0  0  0  0
    1.4289    0.2615    0.0000 C   0  0  0  0  0  0  0  0  0  0  0  0
    0.7145   -0.1510    0.0000 C   0  0  0  0  0  0  0  0  0  0  0  0
    1.4289   -2.2135    0.0000 O   0  0  0  0  0  0  0  0  0  0  0  0
    2.1434   -2.6260    0.0000 C   0  0  0  0  0  0  0  0  0  0  0  0
    2.8579    0.2615    0.0000 C   0  0  0  0  0  0  0  0  0  0  0  0
    2.8579    1.0865    0.0000 C   0  0  0  0  0  0  0  0  0  0  0  0
    2.1434    1.4990    0.0000 N   0  0  0  0  0  0  0  0  0  0  0  0
    1.4289    1.0865    0.0000 C   0  0  0  0  0  0  0  0  0  0  0  0
    3.5724   -0.1510    0.0000 C   0  0  0  0  0  0  0  0  0  0  0  0
    3.5724    0.6740    0.0000 C   0  0  0  0  0  0  0  0  0  0  0  0
    2.1434   -3.4510    0.0000 C   0  0  0  0  0  0  0  0  0  0  0  0
    2.1434    2.3240    0.0000 C   0  0  0  0  0  0  0  0  0  0  0  0
    2.8579    2.7365    0.0000 C   0  0  0  0  0  0  0  0  0  0  0  0
    2.8579   -2.2135    0.0000 C   0  0  0  0  0  0  0  0  0  0  0  0
  1  2  4  0  0  0  0
  2  3  4  0  0  0  0
  3  4  4  0  0  0  0
  4  5  4  0  0  0  0
  5  6  4  0  0  0  0
  6  1  4  0  0  0  0
  4  7  1  0  0  0  0
  8  9  1  0  0  0  0
  9 10  1  0  0  0  0
 10  5  1  0  0  0  0
  7 11  1  0  0  0  0
  9 12  1  0  0  0  0
 10 13  2  0  0  0  0
 10 14  2  0  0  0  0
 11 15  4  0  0  0  0
 15 16  4  0  0  0  0
 16 17  4  0  0  0  0
 17 18  4  0  0  0  0
 18 19  4  0  0  0  0
 19 11  4  0  0  0  0
 15 20  1  0  0  0  0
 18 21  1  0  0  0  0
 21 22  1  0  0  0  0
 22 23  4  0  0  0  0
 23 24  4  0  0  0  0
 24 25  4  0  0  0  0
 25 26  4  0  0  0  0
 26 27  4  0  0  0  0
 27 22  4  0  0  0  0
 23 28  1  0  0  0  0
 28 29  1  0  0  0  0
 25 30  1  0  0  0  0
 30 31  1  0  0  0  0
 31 32  1  0  0  0  0
 32 33  1  0  0  0  0
 33 26  1  0  0  0  0
 30 34  1  0  0  0  0
 30 35  1  0  0  0  0
 29 36  1  0  0  0  0
 32 37  1  0  0  0  0
 37 38  1  0  0  0  0
 29 39  1  0  0  0  0
M  END
> <From>
www.bindingDB.org

> <BindingDB Reactant_set_id>
490522

> <Ligand InChI>
InChI=1S/C29H38ClN5O3S/c1-8-35-16-20-13-24(25(38-18(2)3)14-21(20)29(6,7)17-35)33-28-31-15-22(30)27(34-28)32-23-11-9-10-12-26(23)39(36,37)19(4)5/h9-15,18-19H,8,16-17H2,1-7H3,(H2,31,32,33,34)

> <Ligand InChI Key>
YUGVERBZYOVBIN-UHFFFAOYSA-N

> <BindingDB MonomerID>
244023

> <BindingDB Ligand Name>
5-chloro-N4-(2-(isopropylsulfonyl)phenyl)-N2-(2-ethyl-6-isopropoxy-4,4-dimethyl-1,2,3,4-tetrahydroisoquinolin-7-yl)pyrimidine-2,4-diamine::US10053458, 82

> <Target Name Assigned by Curator or DataSource>
ALK tyrosine kinase receptor

> <Target Source Organism According to Curator or DataSource>
Homo sapiens

> <Ki (nM)>


> <IC50 (nM)>
<10.00

> <Kd (nM)>


> <EC50 (nM)>


> <kon (M-1-s-1)>


> <koff (s-1)>


> <pH>


> <Temp C>
25.00

> <Curation/DataSource>
US Patent

> <Article DOI>


> <PMID>


> <PubChem AID>


> <Patent Number>
US10053458

> <Authors>
Yun, CS; Kim, HR; Cho, SY; Jung, HJ; Lee, K; Chae, CH; Lee, CO; Park, CH; Kim, P; Hwang, JY; Ha, JD; Ahn, SJ

> <Institution>
KOREA RESEARCH INSTITUTE OF CHEMICAL TECHNOLOGY

> <Link to Ligand in BindingDB>
http://www.bindingdb.org/bind/chemsearch/marvin/MolStructure.jsp?monomerid=244023

> <Link to Ligand-Target Pair in BindingDB>
http://www.bindingdb.org/jsp/dbsearch/PrimarySearch_ki.jsp?energyterm=kJ/mole&tag=pol&polymerid=5809&target=ALK+tyrosine+kinase+receptor&column=ki&startPg=0&Increment=50&submit=Search

> <Link to Ligand-Target Pair in BindingDB>
http://www.bindingdb.org/jsp/dbsearch/PrimarySearch_ki.jsp?energyterm=kJ/mole&tag=r21&monomerid=244023&enzyme=ALK+tyrosine+kinase+receptor&column=ki&startPg=0&Increment=50&submit=Search

> <Ligand HET ID in PDB>


> <PDB ID(s) for Ligand-Target Complex>


> <PubChem CID>
129048546

> <PubChem SID>
376221854

> <ChEBI ID of Ligand>


> <ChEMBL ID of Ligand>


> <DrugBank ID of Ligand>


> <IUPHAR_GRAC ID of Ligand>


> <KEGG ID of Ligand>


> <ZINC ID of Ligand>


> <Number of Protein Chains in Target (>1 implies a multichain complex)>
1

> <BindingDB Target Chain Sequence>
MGAIGLLWLLPLLLSTAAVGSGMGTGQRAGSPAAGPPLQPREPLSYSRLQRKSLAVDFVVPSLFRVYARDLLLPPSSSELKAGRPEARGSLALDCAPLLRLLGPAPGVSWTAGSPAPAEARTLSRVLKGGSVRKLRRAKQLVLELGEEAILEGCVGPPGEAAVGLLQFNLSELFSWWIRQGEGRLRIRLMPEKKASEVGREGRLSAAIRASQPRLLFQIFGTGHSSLESPTNMPSPSPDYFTWNLTWIMKDSFPFLSHRSRYGLECSFDFPCELEYSPPLHDLRNQSWSWRRIPSEEASQMDLLDGPGAERSKEMPRGSFLLLNTSADSKHTILSPWMRSSSEHCTLAVSVHRHLQPSGRYIAQLLPHNEAAREILLMPTPGKHGWTVLQGRIGRPDNPFRVALEYISSGNRSLSAVDFFALKNCSEGTSPGSKMALQSSFTCWNGTVLQLGQACDFHQDCAQGEDESQMCRKLPVGFYCNFEDGFCGWTQGTLSPHTPQWQVRTLKDARFQDHQDHALLLSTTDVPASESATVTSATFPAPIKSSPCELRMSWLIRGVLRGNVSLVLVENKTGKEQGRMVWHVAAYEGLSLWQWMVLPLLDVSDRFWLQMVAWWGQGSRAIVAFDNISISLDCYLTISGEDKILQNTAPKSRNLFERNPNKELKPGENSPRQTPIFDPTVHWLFTTCGASGPHGPTQAQCNNAYQNSNLSVEVGSEGPLKGIQIWKVPATDTYSISGYGAAGGKGGKNTMMRSHGVSVLGIFNLEKDDMLYILVGQQGEDACPSTNQLIQKVCIGENNVIEEEIRVNRSVHEWAGGGGGGGGATYVFKMKDGVPVPLIIAAGGGGRAYGAKTDTFHPERLENNSSVLGLNGNSGAAGGGGGWNDNTSLLWAGKSLQEGATGGHSCPQAMKKWGWETRGGFGGGGGGCSSGGGGGGYIGGNAASNNDPEMDGEDGVSFISPLGILYTPALKVMEGHGEVNIKHYLNCSHCEVDECHMDPESHKVICFCDHGTVLAEDGVSCIVSPTPEPHLPLSLILSVVTSALVAALVLAFSGIMIVYRRKHQELQAMQMELQSPEYKLSKLRTSTIMTDYNPNYCFAGKTSSISDLKEVPRKNITLIRGLGHGAFGEVYEGQVSGMPNDPSPLQVAVKTLPEVCSEQDELDFLMEALIISKFNHQNIVRCIGVSLQSLPRFILLELMAGGDLKSFLRETRPRPSQPSSLAMLDLLHVARDIACGCQYLEENHFIHRDIAARNCLLTCPGPGRVAKIGDFGMARDIYRASYYRKGGCAMLPVKWMPPEAFMEGIFTSKTDTWSFGVLLWEIFSLGYMPYPSKSNQEVLEFVTSGGRMDPPKNCPGPVYRIMTQCWQHQPEDRPNFAIILERIEYCTQDPDVINTALPIEYGPLVEEEEKVPVRPKDPEGVPPLLVSQQAKREEERSPAAPPPLPTTSSGKAAKKPTAAEISVRVPRGPAVEGGHVNMAFSQSNPPSELHKVHGSRNKPTSLWNPTYGSWFTEKPTKKNNPIAKKEPHDRGNLGLEGSCTVPPNVATGRLPGASLLLEPSSLTANMKEVPLFRLRHFPCGNVNYGYQQQGLPLEAATAPGAGHYEDTILKSKNSMNQPGP

> <PDB ID(s) of Target Chain>
2XB7,2XBA,3AOX,5FTO,5FTQ,6E0R,6EBW,6EDL,6MX8

> <UniProt (SwissProt) Recommended Name of Target Chain>
ALK tyrosine kinase receptor

> <UniProt (SwissProt) Entry Name of Target Chain>
ALK_HUMAN

> <UniProt (SwissProt) Primary ID of Target Chain>
Q9UM73

> <UniProt (SwissProt) Secondary ID(s) of Target Chain>
Q4ZFX9,Q53QQ6,Q53RZ4,Q59FI3,Q9Y4K6

> <UniProt (SwissProt) Alternative ID(s) of Target Chain>


> <UniProt (TrEMBL) Submitted Name of Target Chain>


> <UniProt (TrEMBL) Entry Name of Target Chain>


> <UniProt (TrEMBL) Primary ID of Target Chain>


> <UniProt (TrEMBL) Secondary ID(s) of Target Chain>


> <UniProt (TrEMBL) Alternative ID(s) of Target Chain>


$$$$
00248001.cdx
  Mrv0541 10181809492D          

 37 41  0  0  0  0            999 V2000
   -3.8499    1.9115    0.0000 C   0  0  0  0  0  0  0  0  0  0  0  0
   -3.8499    1.0865    0.0000 C   0  0  0  0  0  0  0  0  0  0  0  0
   -3.1354    0.6740    0.0000 C   0  0  0  0  0  0  0  0  0  0  0  0
   -2.4210    1.0865    0.0000 C   0  0  0  0  0  0  0  0  0  0  0  0
   -2.4210    1.9115    0.0000 C   0  0  0  0  0  0  0  0  0  0  0  0
   -3.1354    2.3240    0.0000 C   0  0  0  0  0  0  0  0  0  0  0  0
   -1.7065    0.6740    0.0000 N   0  0  0  0  0  0  0  0  0  0  0  0
   -0.9920    1.0865    0.0000 C   0  0  0  0  0  0  0  0  0  0  0  0
   -0.9920    1.9115    0.0000 C   0  0  0  0  0  0  0  0  0  0  0  0
   -1.7065    2.3240    0.0000 S   0  0  0  0  0  0  0  0  0  0  0  0
   -1.7065   -0.1510    0.0000 C   0  0  0  0  0  0  0  0  0  0  0  0
   -0.2775    2.3240    0.0000 C   0  0  0  0  0  0  0  0  0  0  0  0
   -1.2940    3.0385    0.0000 O   0  0  0  0  0  0  0  0  0  0  0  0
   -2.2898    2.9074    0.0000 O   0  0  0  0  0  0  0  0  0  0  0  0
   -2.4210   -0.5635    0.0000 C   0  0  0  0  0  0  0  0  0  0  0  0
   -2.4210   -1.3885    0.0000 C   0  0  0  0  0  0  0  0  0  0  0  0
   -1.7065   -1.8010    0.0000 N   0  0  0  0  0  0  0  0  0  0  0  0
   -0.9920   -1.3885    0.0000 C   0  0  0  0  0  0  0  0  0  0  0  0
   -0.9920   -0.5635    0.0000 N   0  0  0  0  0  0  0  0  0  0  0  0
   -3.1354   -0.1510    0.0000 Cl  0  0  0  0  0  0  0  0  0  0  0  0
   -0.2775   -1.8010    0.0000 N   0  0  0  0  0  0  0  0  0  0  0  0
    0.4369   -1.3885    0.0000 C   0  0  0  0  0  0  0  0  0  0  0  0
    1.1514   -1.8010    0.0000 C   0  0  0  0  0  0  0  0  0  0  0  0
    1.8659   -1.3885    0.0000 C   0  0  0  0  0  0  0  0  0  0  0  0
    1.8659   -0.5635    0.0000 C   0  0  0  0  0  0  0  0  0  0  0  0
    1.1514   -0.1510    0.0000 C   0  0  0  0  0  0  0  0  0  0  0  0
    0.4369   -0.5635    0.0000 C   0  0  0  0  0  0  0  0  0  0  0  0
    1.1514   -2.6260    0.0000 O   0  0  0  0  0  0  0  0  0  0  0  0
    1.8659   -3.0385    0.0000 C   0  0  0  0  0  0  0  0  0  0  0  0
    2.5803   -0.1510    0.0000 C   0  0  0  0  0  0  0  0  0  0  0  0
    2.5803    0.6740    0.0000 C   0  0  0  0  0  0  0  0  0  0  0  0
    1.8659    1.0865    0.0000 N   0  0  0  0  0  0  0  0  0  0  0  0
    1.1514    0.6740    0.0000 C   0  0  0  0  0  0  0  0  0  0  0  0
    2.5803   -0.9760    0.0000 C   0  0  0  0  0  0  0  0  0  0  0  0
    3.3650   -1.2309    0.0000 C   0  0  0  0  0  0  0  0  0  0  0  0
    3.8499   -0.5635    0.0000 C   0  0  0  0  0  0  0  0  0  0  0  0
    3.3650    0.1040    0.0000 C   0  0  0  0  0  0  0  0  0  0  0  0
  1  2  4  0  0  0  0
  2  3  4  0  0  0  0
  3  4  4  0  0  0  0
  4  5  4  0  0  0  0
  5  6  4  0  0  0  0
  6  1  4  0  0  0  0
  4  7  1  0  0  0  0
  8  9  1  0  0  0  0
  9 10  1  0  0  0  0
 10  5  1  0  0  0  0
  7 11  1  0  0  0  0
  9 12  1  0  0  0  0
 10 13  2  0  0  0  0
 10 14  2  0  0  0  0
 11 15  4  0  0  0  0
 15 16  4  0  0  0  0
 16 17  4  0  0  0  0
 17 18  4  0  0  0  0
 18 19  4  0  0  0  0
 19 11  4  0  0  0  0
 15 20  1  0  0  0  0
 18 21  1  0  0  0  0
 21 22  1  0  0  0  0
 22 23  4  0  0  0  0
 23 24  4  0  0  0  0
 24 25  4  0  0  0  0
 25 26  4  0  0  0  0
 26 27  4  0  0  0  0
 27 22  4  0  0  0  0
 23 28  1  0  0  0  0
 28 29  1  0  0  0  0
 25 30  1  0  0  0  0
 30 31  1  0  0  0  0
 31 32  1  0  0  0  0
 32 33  1  0  0  0  0
 33 26  1  0  0  0  0
 30 34  1  0  0  0  0
 34 35  1  0  0  0  0
 35 36  1  0  0  0  0
 36 37  1  0  0  0  0
 37 30  1  0  0  0  0
M  END
> <From>
www.bindingDB.org

> <BindingDB Reactant_set_id>
490524

> <Ligand InChI>
InChI=1S/C27H32ClN5O3S/c1-17(2)37(34,35)24-9-5-4-8-21(24)31-25-20(28)15-30-26(33-25)32-22-12-18-14-29-16-27(10-6-7-11-27)19(18)13-23(22)36-3/h4-5,8-9,12-13,15,17,29H,6-7,10-11,14,16H2,1-3H3,(H2,30,31,32,33)

> <Ligand InChI Key>
AQLSSLHXGBIFOK-UHFFFAOYSA-N

> <BindingDB MonomerID>
244024

> <BindingDB Ligand Name>
5-chloro-N4-(2-(isopropylsulfonyl)phenyl)-N2-(6-methoxy-2,3-dihydro-1H-spiro(cyclopentane-1,4-isoquinolin)-7-yl)pyrimidine-2,4-diamine::US10053458, 83

> <Target Name Assigned by Curator or DataSource>
ALK tyrosine kinase receptor

> <Target Source Organism According to Curator or DataSource>
Homo sapiens

> <Ki (nM)>


> <IC50 (nM)>
<10.00

> <Kd (nM)>


> <EC50 (nM)>


> <kon (M-1-s-1)>


> <koff (s-1)>


> <pH>


> <Temp C>
25.00

> <Curation/DataSource>
US Patent

> <Article DOI>


> <PMID>


> <PubChem AID>


> <Patent Number>
US10053458

> <Authors>
Yun, CS; Kim, HR; Cho, SY; Jung, HJ; Lee, K; Chae, CH; Lee, CO; Park, CH; Kim, P; Hwang, JY; Ha, JD; Ahn, SJ

> <Institution>
KOREA RESEARCH INSTITUTE OF CHEMICAL TECHNOLOGY

> <Link to Ligand in BindingDB>
http://www.bindingdb.org/bind/chemsearch/marvin/MolStructure.jsp?monomerid=244024

> <Link to Ligand-Target Pair in BindingDB>
http://www.bindingdb.org/jsp/dbsearch/PrimarySearch_ki.jsp?energyterm=kJ/mole&tag=pol&polymerid=5809&target=ALK+tyrosine+kinase+receptor&column=ki&startPg=0&Increment=50&submit=Search

> <Link to Ligand-Target Pair in BindingDB>
http://www.bindingdb.org/jsp/dbsearch/PrimarySearch_ki.jsp?energyterm=kJ/mole&tag=r21&monomerid=244024&enzyme=ALK+tyrosine+kinase+receptor&column=ki&startPg=0&Increment=50&submit=Search

> <Ligand HET ID in PDB>


> <PDB ID(s) for Ligand-Target Complex>


> <PubChem CID>
129148011

> <PubChem SID>
376221855

> <ChEBI ID of Ligand>


> <ChEMBL ID of Ligand>


> <DrugBank ID of Ligand>


> <IUPHAR_GRAC ID of Ligand>


> <KEGG ID of Ligand>


> <ZINC ID of Ligand>


> <Number of Protein Chains in Target (>1 implies a multichain complex)>
1

> <BindingDB Target Chain Sequence>
MGAIGLLWLLPLLLSTAAVGSGMGTGQRAGSPAAGPPLQPREPLSYSRLQRKSLAVDFVVPSLFRVYARDLLLPPSSSELKAGRPEARGSLALDCAPLLRLLGPAPGVSWTAGSPAPAEARTLSRVLKGGSVRKLRRAKQLVLELGEEAILEGCVGPPGEAAVGLLQFNLSELFSWWIRQGEGRLRIRLMPEKKASEVGREGRLSAAIRASQPRLLFQIFGTGHSSLESPTNMPSPSPDYFTWNLTWIMKDSFPFLSHRSRYGLECSFDFPCELEYSPPLHDLRNQSWSWRRIPSEEASQMDLLDGPGAERSKEMPRGSFLLLNTSADSKHTILSPWMRSSSEHCTLAVSVHRHLQPSGRYIAQLLPHNEAAREILLMPTPGKHGWTVLQGRIGRPDNPFRVALEYISSGNRSLSAVDFFALKNCSEGTSPGSKMALQSSFTCWNGTVLQLGQACDFHQDCAQGEDESQMCRKLPVGFYCNFEDGFCGWTQGTLSPHTPQWQVRTLKDARFQDHQDHALLLSTTDVPASESATVTSATFPAPIKSSPCELRMSWLIRGVLRGNVSLVLVENKTGKEQGRMVWHVAAYEGLSLWQWMVLPLLDVSDRFWLQMVAWWGQGSRAIVAFDNISISLDCYLTISGEDKILQNTAPKSRNLFERNPNKELKPGENSPRQTPIFDPTVHWLFTTCGASGPHGPTQAQCNNAYQNSNLSVEVGSEGPLKGIQIWKVPATDTYSISGYGAAGGKGGKNTMMRSHGVSVLGIFNLEKDDMLYILVGQQGEDACPSTNQLIQKVCIGENNVIEEEIRVNRSVHEWAGGGGGGGGATYVFKMKDGVPVPLIIAAGGGGRAYGAKTDTFHPERLENNSSVLGLNGNSGAAGGGGGWNDNTSLLWAGKSLQEGATGGHSCPQAMKKWGWETRGGFGGGGGGCSSGGGGGGYIGGNAASNNDPEMDGEDGVSFISPLGILYTPALKVMEGHGEVNIKHYLNCSHCEVDECHMDPESHKVICFCDHGTVLAEDGVSCIVSPTPEPHLPLSLILSVVTSALVAALVLAFSGIMIVYRRKHQELQAMQMELQSPEYKLSKLRTSTIMTDYNPNYCFAGKTSSISDLKEVPRKNITLIRGLGHGAFGEVYEGQVSGMPNDPSPLQVAVKTLPEVCSEQDELDFLMEALIISKFNHQNIVRCIGVSLQSLPRFILLELMAGGDLKSFLRETRPRPSQPSSLAMLDLLHVARDIACGCQYLEENHFIHRDIAARNCLLTCPGPGRVAKIGDFGMARDIYRASYYRKGGCAMLPVKWMPPEAFMEGIFTSKTDTWSFGVLLWEIFSLGYMPYPSKSNQEVLEFVTSGGRMDPPKNCPGPVYRIMTQCWQHQPEDRPNFAIILERIEYCTQDPDVINTALPIEYGPLVEEEEKVPVRPKDPEGVPPLLVSQQAKREEERSPAAPPPLPTTSSGKAAKKPTAAEISVRVPRGPAVEGGHVNMAFSQSNPPSELHKVHGSRNKPTSLWNPTYGSWFTEKPTKKNNPIAKKEPHDRGNLGLEGSCTVPPNVATGRLPGASLLLEPSSLTANMKEVPLFRLRHFPCGNVNYGYQQQGLPLEAATAPGAGHYEDTILKSKNSMNQPGP

> <PDB ID(s) of Target Chain>
2XB7,2XBA,3AOX,5FTO,5FTQ,6E0R,6EBW,6EDL,6MX8

> <UniProt (SwissProt) Recommended Name of Target Chain>
ALK tyrosine kinase receptor

> <UniProt (SwissProt) Entry Name of Target Chain>
ALK_HUMAN

> <UniProt (SwissProt) Primary ID of Target Chain>
Q9UM73

> <UniProt (SwissProt) Secondary ID(s) of Target Chain>
Q4ZFX9,Q53QQ6,Q53RZ4,Q59FI3,Q9Y4K6

> <UniProt (SwissProt) Alternative ID(s) of Target Chain>


> <UniProt (TrEMBL) Submitted Name of Target Chain>


> <UniProt (TrEMBL) Entry Name of Target Chain>


> <UniProt (TrEMBL) Primary ID of Target Chain>


> <UniProt (TrEMBL) Secondary ID(s) of Target Chain>


> <UniProt (TrEMBL) Alternative ID(s) of Target Chain>


$$$$
00249001.cdx
  Mrv0541 10181809492D          

 38 42  0  0  0  0            999 V2000
   -3.9296    1.9115    0.0000 C   0  0  0  0  0  0  0  0  0  0  0  0
   -3.9296    1.0865    0.0000 C   0  0  0  0  0  0  0  0  0  0  0  0
   -3.2151    0.6740    0.0000 C   0  0  0  0  0  0  0  0  0  0  0  0
   -2.5006    1.0865    0.0000 C   0  0  0  0  0  0  0  0  0  0  0  0
   -2.5006    1.9115    0.0000 C   0  0  0  0  0  0  0  0  0  0  0  0
   -3.2151    2.3240    0.0000 C   0  0  0  0  0  0  0  0  0  0  0  0
   -1.7862    0.6740    0.0000 N   0  0  0  0  0  0  0  0  0  0  0  0
   -1.0717    1.0865    0.0000 C   0  0  0  0  0  0  0  0  0  0  0  0
   -1.0717    1.9115    0.0000 C   0  0  0  0  0  0  0  0  0  0  0  0
   -1.7862    2.3240    0.0000 S   0  0  0  0  0  0  0  0  0  0  0  0
   -1.7862   -0.1510    0.0000 C   0  0  0  0  0  0  0  0  0  0  0  0
   -0.3572    2.3240    0.0000 C   0  0  0  0  0  0  0  0  0  0  0  0
   -1.3737    3.0385    0.0000 O   0  0  0  0  0  0  0  0  0  0  0  0
   -2.3695    2.9074    0.0000 O   0  0  0  0  0  0  0  0  0  0  0  0
   -2.5006   -0.5635    0.0000 C   0  0  0  0  0  0  0  0  0  0  0  0
   -2.5006   -1.3885    0.0000 C   0  0  0  0  0  0  0  0  0  0  0  0
   -1.7862   -1.8010    0.0000 N   0  0  0  0  0  0  0  0  0  0  0  0
   -1.0717   -1.3885    0.0000 C   0  0  0  0  0  0  0  0  0  0  0  0
   -1.0717   -0.5635    0.0000 N   0  0  0  0  0  0  0  0  0  0  0  0
   -3.2151   -0.1510    0.0000 Cl  0  0  0  0  0  0  0  0  0  0  0  0
   -0.3572   -1.8010    0.0000 N   0  0  0  0  0  0  0  0  0  0  0  0
    0.3572   -1.3885    0.0000 C   0  0  0  0  0  0  0  0  0  0  0  0
    1.0717   -1.8010    0.0000 C   0  0  0  0  0  0  0  0  0  0  0  0
    1.7862   -1.3885    0.0000 C   0  0  0  0  0  0  0  0  0  0  0  0
    1.7862   -0.5635    0.0000 C   0  0  0  0  0  0  0  0  0  0  0  0
    1.0717   -0.1510    0.0000 C   0  0  0  0  0  0  0  0  0  0  0  0
    0.3572   -0.5635    0.0000 C   0  0  0  0  0  0  0  0  0  0  0  0
    1.0717   -2.6260    0.0000 O   0  0  0  0  0  0  0  0  0  0  0  0
    1.7862   -3.0385    0.0000 C   0  0  0  0  0  0  0  0  0  0  0  0
    2.5006   -0.1510    0.0000 C   0  0  0  0  0  0  0  0  0  0  0  0
    2.5006    0.6740    0.0000 N   0  0  0  0  0  0  0  0  0  0  0  0
    1.7862    1.0865    0.0000 C   0  0  0  0  0  0  0  0  0  0  0  0
    1.0717    0.6740    0.0000 C   0  0  0  0  0  0  0  0  0  0  0  0
    3.2151   -0.5635    0.0000 C   0  0  0  0  0  0  0  0  0  0  0  0
    3.9296   -0.1510    0.0000 N   0  0  0  0  0  0  0  0  0  0  0  0
    3.9296    0.6740    0.0000 C   0  0  0  0  0  0  0  0  0  0  0  0
    3.2151    1.0865    0.0000 C   0  0  0  0  0  0  0  0  0  0  0  0
    3.2151    1.9115    0.0000 O   0  0  0  0  0  0  0  0  0  0  0  0
  1  2  4  0  0  0  0
  2  3  4  0  0  0  0
  3  4  4  0  0  0  0
  4  5  4  0  0  0  0
  5  6  4  0  0  0  0
  6  1  4  0  0  0  0
  4  7  1  0  0  0  0
  8  9  1  0  0  0  0
  9 10  1  0  0  0  0
 10  5  1  0  0  0  0
  7 11  1  0  0  0  0
  9 12  1  0  0  0  0
 10 13  2  0  0  0  0
 10 14  2  0  0  0  0
 11 15  4  0  0  0  0
 15 16  4  0  0  0  0
 16 17  4  0  0  0  0
 17 18  4  0  0  0  0
 18 19  4  0  0  0  0
 19 11  4  0  0  0  0
 15 20  1  0  0  0  0
 18 21  1  0  0  0  0
 21 22  1  0  0  0  0
 22 23  4  0  0  0  0
 23 24  4  0  0  0  0
 24 25  4  0  0  0  0
 25 26  4  0  0  0  0
 26 27  4  0  0  0  0
 27 22  4  0  0  0  0
 23 28  1  0  0  0  0
 28 29  1  0  0  0  0
 25 30  1  0  0  0  0
 30 31  1  0  0  0  0
 31 32  1  0  0  0  0
 32 33  1  0  0  0  0
 33 26  1  0  0  0  0
 30 34  1  0  0  0  0
 34 35  1  0  0  0  0
 35 36  1  0  0  0  0
 36 37  1  0  0  0  0
 37 31  1  0  0  0  0
 37 38  2  0  0  0  0
M  END
> <From>
www.bindingDB.org

> <BindingDB Reactant_set_id>
490526

> <Ligand InChI>
InChI=1S/C26H29ClN6O4S/c1-15(2)38(35,36)23-7-5-4-6-19(23)30-25-18(27)12-29-26(32-25)31-20-10-16-8-9-33-21(13-28-14-24(33)34)17(16)11-22(20)37-3/h4-7,10-12,15,21,28H,8-9,13-14H2,1-3H3,(H2,29,30,31,32)

> <Ligand InChI Key>
XJMFPTCMAYQIDJ-UHFFFAOYSA-N

> <BindingDB MonomerID>
244025

> <BindingDB Ligand Name>
9-((5-chloro-4-(2-(isopropylsulfonyl)phenyl)aminopyrimidin-2-yl)amino)-10-methoxy-2,3,6,7-tetrahydro-1H-pyrazino[2,1-a]isoquinoline)-4(11bH)-one::US10053458, 84

> <Target Name Assigned by Curator or DataSource>
ALK tyrosine kinase receptor

> <Target Source Organism According to Curator or DataSource>
Homo sapiens

> <Ki (nM)>


> <IC50 (nM)>
<10.00

> <Kd (nM)>


> <EC50 (nM)>


> <kon (M-1-s-1)>


> <koff (s-1)>


> <pH>


> <Temp C>
25.00

> <Curation/DataSource>
US Patent

> <Article DOI>


> <PMID>


> <PubChem AID>


> <Patent Number>
US10053458

> <Authors>
Yun, CS; Kim, HR; Cho, SY; Jung, HJ; Lee, K; Chae, CH; Lee, CO; Park, CH; Kim, P; Hwang, JY; Ha, JD; Ahn, SJ

> <Institution>
KOREA RESEARCH INSTITUTE OF CHEMICAL TECHNOLOGY

> <Link to Ligand in BindingDB>
http://www.bindingdb.org/bind/chemsearch/marvin/MolStructure.jsp?monomerid=244025

> <Link to Ligand-Target Pair in BindingDB>
http://www.bindingdb.org/jsp/dbsearch/PrimarySearch_ki.jsp?energyterm=kJ/mole&tag=pol&polymerid=5809&target=ALK+tyrosine+kinase+receptor&column=ki&startPg=0&Increment=50&submit=Search

> <Link to Ligand-Target Pair in BindingDB>
http://www.bindingdb.org/jsp/dbsearch/PrimarySearch_ki.jsp?energyterm=kJ/mole&tag=r21&monomerid=244025&enzyme=ALK+tyrosine+kinase+receptor&column=ki&startPg=0&Increment=50&submit=Search

> <Ligand HET ID in PDB>


> <PDB ID(s) for Ligand-Target Complex>


> <PubChem CID>
129065476

> <PubChem SID>
376221856

> <ChEBI ID of Ligand>


> <ChEMBL ID of Ligand>


> <DrugBank ID of Ligand>


> <IUPHAR_GRAC ID of Ligand>


> <KEGG ID of Ligand>


> <ZINC ID of Ligand>


> <Number of Protein Chains in Target (>1 implies a multichain complex)>
1

> <BindingDB Target Chain Sequence>
MGAIGLLWLLPLLLSTAAVGSGMGTGQRAGSPAAGPPLQPREPLSYSRLQRKSLAVDFVVPSLFRVYARDLLLPPSSSELKAGRPEARGSLALDCAPLLRLLGPAPGVSWTAGSPAPAEARTLSRVLKGGSVRKLRRAKQLVLELGEEAILEGCVGPPGEAAVGLLQFNLSELFSWWIRQGEGRLRIRLMPEKKASEVGREGRLSAAIRASQPRLLFQIFGTGHSSLESPTNMPSPSPDYFTWNLTWIMKDSFPFLSHRSRYGLECSFDFPCELEYSPPLHDLRNQSWSWRRIPSEEASQMDLLDGPGAERSKEMPRGSFLLLNTSADSKHTILSPWMRSSSEHCTLAVSVHRHLQPSGRYIAQLLPHNEAAREILLMPTPGKHGWTVLQGRIGRPDNPFRVALEYISSGNRSLSAVDFFALKNCSEGTSPGSKMALQSSFTCWNGTVLQLGQACDFHQDCAQGEDESQMCRKLPVGFYCNFEDGFCGWTQGTLSPHTPQWQVRTLKDARFQDHQDHALLLSTTDVPASESATVTSATFPAPIKSSPCELRMSWLIRGVLRGNVSLVLVENKTGKEQGRMVWHVAAYEGLSLWQWMVLPLLDVSDRFWLQMVAWWGQGSRAIVAFDNISISLDCYLTISGEDKILQNTAPKSRNLFERNPNKELKPGENSPRQTPIFDPTVHWLFTTCGASGPHGPTQAQCNNAYQNSNLSVEVGSEGPLKGIQIWKVPATDTYSISGYGAAGGKGGKNTMMRSHGVSVLGIFNLEKDDMLYILVGQQGEDACPSTNQLIQKVCIGENNVIEEEIRVNRSVHEWAGGGGGGGGATYVFKMKDGVPVPLIIAAGGGGRAYGAKTDTFHPERLENNSSVLGLNGNSGAAGGGGGWNDNTSLLWAGKSLQEGATGGHSCPQAMKKWGWETRGGFGGGGGGCSSGGGGGGYIGGNAASNNDPEMDGEDGVSFISPLGILYTPALKVMEGHGEVNIKHYLNCSHCEVDECHMDPESHKVICFCDHGTVLAEDGVSCIVSPTPEPHLPLSLILSVVTSALVAALVLAFSGIMIVYRRKHQELQAMQMELQSPEYKLSKLRTSTIMTDYNPNYCFAGKTSSISDLKEVPRKNITLIRGLGHGAFGEVYEGQVSGMPNDPSPLQVAVKTLPEVCSEQDELDFLMEALIISKFNHQNIVRCIGVSLQSLPRFILLELMAGGDLKSFLRETRPRPSQPSSLAMLDLLHVARDIACGCQYLEENHFIHRDIAARNCLLTCPGPGRVAKIGDFGMARDIYRASYYRKGGCAMLPVKWMPPEAFMEGIFTSKTDTWSFGVLLWEIFSLGYMPYPSKSNQEVLEFVTSGGRMDPPKNCPGPVYRIMTQCWQHQPEDRPNFAIILERIEYCTQDPDVINTALPIEYGPLVEEEEKVPVRPKDPEGVPPLLVSQQAKREEERSPAAPPPLPTTSSGKAAKKPTAAEISVRVPRGPAVEGGHVNMAFSQSNPPSELHKVHGSRNKPTSLWNPTYGSWFTEKPTKKNNPIAKKEPHDRGNLGLEGSCTVPPNVATGRLPGASLLLEPSSLTANMKEVPLFRLRHFPCGNVNYGYQQQGLPLEAATAPGAGHYEDTILKSKNSMNQPGP

> <PDB ID(s) of Target Chain>
2XB7,2XBA,3AOX,5FTO,5FTQ,6E0R,6EBW,6EDL,6MX8

> <UniProt (SwissProt) Recommended Name of Target Chain>
ALK tyrosine kinase receptor

> <UniProt (SwissProt) Entry Name of Target Chain>
ALK_HUMAN

> <UniProt (SwissProt) Primary ID of Target Chain>
Q9UM73

> <UniProt (SwissProt) Secondary ID(s) of Target Chain>
Q4ZFX9,Q53QQ6,Q53RZ4,Q59FI3,Q9Y4K6

> <UniProt (SwissProt) Alternative ID(s) of Target Chain>


> <UniProt (TrEMBL) Submitted Name of Target Chain>


> <UniProt (TrEMBL) Entry Name of Target Chain>


> <UniProt (TrEMBL) Primary ID of Target Chain>


> <UniProt (TrEMBL) Secondary ID(s) of Target Chain>


> <UniProt (TrEMBL) Alternative ID(s) of Target Chain>


$$$$
00250001.cdx
  Mrv0541 10181809492D          

 40 44  0  0  0  0            999 V2000
   -3.5724    1.9115    0.0000 C   0  0  0  0  0  0  0  0  0  0  0  0
   -3.5724    1.0865    0.0000 C   0  0  0  0  0  0  0  0  0  0  0  0
   -2.8579    0.6740    0.0000 C   0  0  0  0  0  0  0  0  0  0  0  0
   -2.1434    1.0865    0.0000 C   0  0  0  0  0  0  0  0  0  0  0  0
   -2.1434    1.9115    0.0000 C   0  0  0  0  0  0  0  0  0  0  0  0
   -2.8579    2.3240    0.0000 C   0  0  0  0  0  0  0  0  0  0  0  0
   -1.4289    0.6740    0.0000 N   0  0  0  0  0  0  0  0  0  0  0  0
   -0.7145    1.0865    0.0000 C   0  0  0  0  0  0  0  0  0  0  0  0
   -0.7145    1.9115    0.0000 C   0  0  0  0  0  0  0  0  0  0  0  0
   -1.4289    2.3240    0.0000 S   0  0  0  0  0  0  0  0  0  0  0  0
   -1.4289   -0.1510    0.0000 C   0  0  0  0  0  0  0  0  0  0  0  0
    0.0000    2.3240    0.0000 C   0  0  0  0  0  0  0  0  0  0  0  0
   -1.0164    3.0385    0.0000 O   0  0  0  0  0  0  0  0  0  0  0  0
   -2.0123    2.9074    0.0000 O   0  0  0  0  0  0  0  0  0  0  0  0
   -2.1434   -0.5635    0.0000 C   0  0  0  0  0  0  0  0  0  0  0  0
   -2.1434   -1.3885    0.0000 C   0  0  0  0  0  0  0  0  0  0  0  0
   -1.4289   -1.8010    0.0000 N   0  0  0  0  0  0  0  0  0  0  0  0
   -0.7145   -1.3885    0.0000 C   0  0  0  0  0  0  0  0  0  0  0  0
   -0.7145   -0.5635    0.0000 N   0  0  0  0  0  0  0  0  0  0  0  0
   -2.8579   -0.1510    0.0000 Cl  0  0  0  0  0  0  0  0  0  0  0  0
    0.0000   -1.8010    0.0000 N   0  0  0  0  0  0  0  0  0  0  0  0
    0.7145   -1.3885    0.0000 C   0  0  0  0  0  0  0  0  0  0  0  0
    1.4289   -1.8010    0.0000 C   0  0  0  0  0  0  0  0  0  0  0  0
    2.1434   -1.3885    0.0000 C   0  0  0  0  0  0  0  0  0  0  0  0
    2.1434   -0.5635    0.0000 C   0  0  0  0  0  0  0  0  0  0  0  0
    1.4289   -0.1510    0.0000 C   0  0  0  0  0  0  0  0  0  0  0  0
    0.7145   -0.5635    0.0000 C   0  0  0  0  0  0  0  0  0  0  0  0
    1.4289   -2.6260    0.0000 O   0  0  0  0  0  0  0  0  0  0  0  0
    2.1434   -3.0385    0.0000 C   0  0  0  0  0  0  0  0  0  0  0  0
    2.8579   -0.1510    0.0000 C   0  0  0  0  0  0  0  0  0  0  0  0
    2.8579    0.6740    0.0000 C   0  0  0  0  0  0  0  0  0  0  0  0
    2.1434    1.0865    0.0000 N   0  0  0  0  0  0  0  0  0  0  0  0
    1.4289    0.6740    0.0000 C   0  0  0  0  0  0  0  0  0  0  0  0
    2.1434    1.9115    0.0000 C   0  0  0  0  0  0  0  0  0  0  0  0
    1.4289    2.3240    0.0000 C   0  0  0  0  0  0  0  0  0  0  0  0
    0.7145    1.9115    0.0000 N   0  0  0  0  0  0  0  0  0  0  0  0
    0.7145    1.0865    0.0000 C   0  0  0  0  0  0  0  0  0  0  0  0
    2.8579    2.3240    0.0000 O   0  0  0  0  0  0  0  0  0  0  0  0
    3.5724    0.2615    0.0000 C   0  0  0  0  0  0  0  0  0  0  0  0
    3.5724   -0.5635    0.0000 C   0  0  0  0  0  0  0  0  0  0  0  0
  1  2  4  0  0  0  0
  2  3  4  0  0  0  0
  3  4  4  0  0  0  0
  4  5  4  0  0  0  0
  5  6  4  0  0  0  0
  6  1  4  0  0  0  0
  4  7  1  0  0  0  0
  8  9  1  0  0  0  0
  9 10  1  0  0  0  0
 10  5  1  0  0  0  0
  7 11  1  0  0  0  0
  9 12  1  0  0  0  0
 10 13  2  0  0  0  0
 10 14  2  0  0  0  0
 11 15  4  0  0  0  0
 15 16  4  0  0  0  0
 16 17  4  0  0  0  0
 17 18  4  0  0  0  0
 18 19  4  0  0  0  0
 19 11  4  0  0  0  0
 15 20  1  0  0  0  0
 18 21  1  0  0  0  0
 21 22  1  0  0  0  0
 22 23  4  0  0  0  0
 23 24  4  0  0  0  0
 24 25  4  0  0  0  0
 25 26  4  0  0  0  0
 26 27  4  0  0  0  0
 27 22  4  0  0  0  0
 23 28  1  0  0  0  0
 28 29  1  0  0  0  0
 25 30  1  0  0  0  0
 30 31  1  0  0  0  0
 31 32  1  0  0  0  0
 32 33  1  0  0  0  0
 33 26  1  0  0  0  0
 32 34  1  0  0  0  0
 34 35  1  0  0  0  0
 35 36  1  0  0  0  0
 36 37  1  0  0  0  0
 37 33  1  0  0  0  0
 34 38  2  0  0  0  0
 30 39  1  0  0  0  0
 30 40  1  0  0  0  0
M  END
> <From>
www.bindingDB.org

> <BindingDB Reactant_set_id>
490528

> <Ligand InChI>
InChI=1S/C28H33ClN6O4S/c1-16(2)40(37,38)24-9-7-6-8-20(24)32-26-19(29)12-31-27(34-26)33-21-10-17-18(11-23(21)39-5)28(3,4)15-35-22(17)13-30-14-25(35)36/h6-12,16,22,30H,13-15H2,1-5H3,(H2,31,32,33,34)

> <Ligand InChI Key>
GPUONZWPXMSVEO-UHFFFAOYSA-N

> <BindingDB MonomerID>
244026

> <BindingDB Ligand Name>
10-((5-chloro-4-(2-(isopropylsulfonyl)phenyl)aminopyrimidin-2-yl)amino)-9-methoxy-7,7-dimethyl-1,2,3, 6,7,11b-hexahydro-4H-pyrazino[2,1-a]isoquinoline)-4-one::US10053458, 85

> <Target Name Assigned by Curator or DataSource>
ALK tyrosine kinase receptor

> <Target Source Organism According to Curator or DataSource>
Homo sapiens

> <Ki (nM)>


> <IC50 (nM)>
<10.00

> <Kd (nM)>


> <EC50 (nM)>


> <kon (M-1-s-1)>


> <koff (s-1)>


> <pH>


> <Temp C>
25.00

> <Curation/DataSource>
US Patent

> <Article DOI>


> <PMID>


> <PubChem AID>


> <Patent Number>
US10053458

> <Authors>
Yun, CS; Kim, HR; Cho, SY; Jung, HJ; Lee, K; Chae, CH; Lee, CO; Park, CH; Kim, P; Hwang, JY; Ha, JD; Ahn, SJ

> <Institution>
KOREA RESEARCH INSTITUTE OF CHEMICAL TECHNOLOGY

> <Link to Ligand in BindingDB>
http://www.bindingdb.org/bind/chemsearch/marvin/MolStructure.jsp?monomerid=244026

> <Link to Ligand-Target Pair in BindingDB>
http://www.bindingdb.org/jsp/dbsearch/PrimarySearch_ki.jsp?energyterm=kJ/mole&tag=pol&polymerid=5809&target=ALK+tyrosine+kinase+receptor&column=ki&startPg=0&Increment=50&submit=Search

> <Link to Ligand-Target Pair in BindingDB>
http://www.bindingdb.org/jsp/dbsearch/PrimarySearch_ki.jsp?energyterm=kJ/mole&tag=r21&monomerid=244026&enzyme=ALK+tyrosine+kinase+receptor&column=ki&startPg=0&Increment=50&submit=Search

> <Ligand HET ID in PDB>


> <PDB ID(s) for Ligand-Target Complex>


> <PubChem CID>
129147993

> <PubChem SID>
376221857

> <ChEBI ID of Ligand>


> <ChEMBL ID of Ligand>


> <DrugBank ID of Ligand>


> <IUPHAR_GRAC ID of Ligand>


> <KEGG ID of Ligand>


> <ZINC ID of Ligand>


> <Number of Protein Chains in Target (>1 implies a multichain complex)>
1

> <BindingDB Target Chain Sequence>
MGAIGLLWLLPLLLSTAAVGSGMGTGQRAGSPAAGPPLQPREPLSYSRLQRKSLAVDFVVPSLFRVYARDLLLPPSSSELKAGRPEARGSLALDCAPLLRLLGPAPGVSWTAGSPAPAEARTLSRVLKGGSVRKLRRAKQLVLELGEEAILEGCVGPPGEAAVGLLQFNLSELFSWWIRQGEGRLRIRLMPEKKASEVGREGRLSAAIRASQPRLLFQIFGTGHSSLESPTNMPSPSPDYFTWNLTWIMKDSFPFLSHRSRYGLECSFDFPCELEYSPPLHDLRNQSWSWRRIPSEEASQMDLLDGPGAERSKEMPRGSFLLLNTSADSKHTILSPWMRSSSEHCTLAVSVHRHLQPSGRYIAQLLPHNEAAREILLMPTPGKHGWTVLQGRIGRPDNPFRVALEYISSGNRSLSAVDFFALKNCSEGTSPGSKMALQSSFTCWNGTVLQLGQACDFHQDCAQGEDESQMCRKLPVGFYCNFEDGFCGWTQGTLSPHTPQWQVRTLKDARFQDHQDHALLLSTTDVPASESATVTSATFPAPIKSSPCELRMSWLIRGVLRGNVSLVLVENKTGKEQGRMVWHVAAYEGLSLWQWMVLPLLDVSDRFWLQMVAWWGQGSRAIVAFDNISISLDCYLTISGEDKILQNTAPKSRNLFERNPNKELKPGENSPRQTPIFDPTVHWLFTTCGASGPHGPTQAQCNNAYQNSNLSVEVGSEGPLKGIQIWKVPATDTYSISGYGAAGGKGGKNTMMRSHGVSVLGIFNLEKDDMLYILVGQQGEDACPSTNQLIQKVCIGENNVIEEEIRVNRSVHEWAGGGGGGGGATYVFKMKDGVPVPLIIAAGGGGRAYGAKTDTFHPERLENNSSVLGLNGNSGAAGGGGGWNDNTSLLWAGKSLQEGATGGHSCPQAMKKWGWETRGGFGGGGGGCSSGGGGGGYIGGNAASNNDPEMDGEDGVSFISPLGILYTPALKVMEGHGEVNIKHYLNCSHCEVDECHMDPESHKVICFCDHGTVLAEDGVSCIVSPTPEPHLPLSLILSVVTSALVAALVLAFSGIMIVYRRKHQELQAMQMELQSPEYKLSKLRTSTIMTDYNPNYCFAGKTSSISDLKEVPRKNITLIRGLGHGAFGEVYEGQVSGMPNDPSPLQVAVKTLPEVCSEQDELDFLMEALIISKFNHQNIVRCIGVSLQSLPRFILLELMAGGDLKSFLRETRPRPSQPSSLAMLDLLHVARDIACGCQYLEENHFIHRDIAARNCLLTCPGPGRVAKIGDFGMARDIYRASYYRKGGCAMLPVKWMPPEAFMEGIFTSKTDTWSFGVLLWEIFSLGYMPYPSKSNQEVLEFVTSGGRMDPPKNCPGPVYRIMTQCWQHQPEDRPNFAIILERIEYCTQDPDVINTALPIEYGPLVEEEEKVPVRPKDPEGVPPLLVSQQAKREEERSPAAPPPLPTTSSGKAAKKPTAAEISVRVPRGPAVEGGHVNMAFSQSNPPSELHKVHGSRNKPTSLWNPTYGSWFTEKPTKKNNPIAKKEPHDRGNLGLEGSCTVPPNVATGRLPGASLLLEPSSLTANMKEVPLFRLRHFPCGNVNYGYQQQGLPLEAATAPGAGHYEDTILKSKNSMNQPGP

> <PDB ID(s) of Target Chain>
2XB7,2XBA,3AOX,5FTO,5FTQ,6E0R,6EBW,6EDL,6MX8

> <UniProt (SwissProt) Recommended Name of Target Chain>
ALK tyrosine kinase receptor

> <UniProt (SwissProt) Entry Name of Target Chain>
ALK_HUMAN

> <UniProt (SwissProt) Primary ID of Target Chain>
Q9UM73

> <UniProt (SwissProt) Secondary ID(s) of Target Chain>
Q4ZFX9,Q53QQ6,Q53RZ4,Q59FI3,Q9Y4K6

> <UniProt (SwissProt) Alternative ID(s) of Target Chain>


> <UniProt (TrEMBL) Submitted Name of Target Chain>


> <UniProt (TrEMBL) Entry Name of Target Chain>


> <UniProt (TrEMBL) Primary ID of Target Chain>


> <UniProt (TrEMBL) Secondary ID(s) of Target Chain>


> <UniProt (TrEMBL) Alternative ID(s) of Target Chain>


$$$$
00255001.cdx
  Mrv0541 10181809492D          

 39 43  0  0  0  0            999 V2000
   -3.5724    1.9115    0.0000 C   0  0  0  0  0  0  0  0  0  0  0  0
   -3.5724    1.0865    0.0000 C   0  0  0  0  0  0  0  0  0  0  0  0
   -2.8579    0.6740    0.0000 C   0  0  0  0  0  0  0  0  0  0  0  0
   -2.1434    1.0865    0.0000 C   0  0  0  0  0  0  0  0  0  0  0  0
   -2.1434    1.9115    0.0000 C   0  0  0  0  0  0  0  0  0  0  0  0
   -2.8579    2.3240    0.0000 C   0  0  0  0  0  0  0  0  0  0  0  0
   -1.4289    0.6740    0.0000 N   0  0  0  0  0  0  0  0  0  0  0  0
   -0.7145    1.0865    0.0000 C   0  0  0  0  0  0  0  0  0  0  0  0
   -0.7145    1.9115    0.0000 C   0  0  0  0  0  0  0  0  0  0  0  0
   -1.4289    2.3240    0.0000 S   0  0  0  0  0  0  0  0  0  0  0  0
   -1.4289   -0.1510    0.0000 C   0  0  0  0  0  0  0  0  0  0  0  0
    0.0000    2.3240    0.0000 C   0  0  0  0  0  0  0  0  0  0  0  0
   -1.0164    3.0385    0.0000 O   0  0  0  0  0  0  0  0  0  0  0  0
   -2.0123    2.9074    0.0000 O   0  0  0  0  0  0  0  0  0  0  0  0
   -2.1434   -0.5635    0.0000 C   0  0  0  0  0  0  0  0  0  0  0  0
   -2.1434   -1.3885    0.0000 C   0  0  0  0  0  0  0  0  0  0  0  0
   -1.4289   -1.8010    0.0000 N   0  0  0  0  0  0  0  0  0  0  0  0
   -0.7145   -1.3885    0.0000 C   0  0  0  0  0  0  0  0  0  0  0  0
   -0.7145   -0.5635    0.0000 N   0  0  0  0  0  0  0  0  0  0  0  0
   -2.8579   -0.1510    0.0000 Cl  0  0  0  0  0  0  0  0  0  0  0  0
    0.0000   -1.8010    0.0000 N   0  0  0  0  0  0  0  0  0  0  0  0
    0.7145   -1.3885    0.0000 C   0  0  0  0  0  0  0  0  0  0  0  0
    1.4289   -1.8010    0.0000 C   0  0  0  0  0  0  0  0  0  0  0  0
    2.1434   -1.3885    0.0000 C   0  0  0  0  0  0  0  0  0  0  0  0
    2.1434   -0.5635    0.0000 C   0  0  0  0  0  0  0  0  0  0  0  0
    1.4289   -0.1510    0.0000 C   0  0  0  0  0  0  0  0  0  0  0  0
    0.7145   -0.5635    0.0000 C   0  0  0  0  0  0  0  0  0  0  0  0
    1.4289   -2.6260    0.0000 O   0  0  0  0  0  0  0  0  0  0  0  0
    2.1434   -3.0385    0.0000 C   0  0  0  0  0  0  0  0  0  0  0  0
    2.8579   -0.1510    0.0000 C   0  0  0  0  0  0  0  0  0  0  0  0
    2.8579    0.6740    0.0000 C   0  0  0  0  0  0  0  0  0  0  0  0
    2.1434    1.0865    0.0000 N   0  0  0  0  0  0  0  0  0  0  0  0
    1.4289    0.6740    0.0000 C   0  0  0  0  0  0  0  0  0  0  0  0
    2.1434    1.9115    0.0000 C   0  0  0  0  0  0  0  0  0  0  0  0
    1.4289    2.3240    0.0000 C   0  0  0  0  0  0  0  0  0  0  0  0
    0.7145    1.9115    0.0000 N   0  0  0  0  0  0  0  0  0  0  0  0
    0.7145    1.0865    0.0000 C   0  0  0  0  0  0  0  0  0  0  0  0
    3.5724    0.2615    0.0000 C   0  0  0  0  0  0  0  0  0  0  0  0
    3.5724   -0.5635    0.0000 C   0  0  0  0  0  0  0  0  0  0  0  0
  1  2  4  0  0  0  0
  2  3  4  0  0  0  0
  3  4  4  0  0  0  0
  4  5  4  0  0  0  0
  5  6  4  0  0  0  0
  6  1  4  0  0  0  0
  4  7  1  0  0  0  0
  8  9  1  0  0  0  0
  9 10  1  0  0  0  0
 10  5  1  0  0  0  0
  7 11  1  0  0  0  0
  9 12  1  0  0  0  0
 10 13  2  0  0  0  0
 10 14  2  0  0  0  0
 11 15  4  0  0  0  0
 15 16  4  0  0  0  0
 16 17  4  0  0  0  0
 17 18  4  0  0  0  0
 18 19  4  0  0  0  0
 19 11  4  0  0  0  0
 15 20  1  0  0  0  0
 18 21  1  0  0  0  0
 21 22  1  0  0  0  0
 22 23  4  0  0  0  0
 23 24  4  0  0  0  0
 24 25  4  0  0  0  0
 25 26  4  0  0  0  0
 26 27  4  0  0  0  0
 27 22  4  0  0  0  0
 23 28  1  0  0  0  0
 28 29  1  0  0  0  0
 25 30  1  0  0  0  0
 30 31  1  0  0  0  0
 31 32  1  0  0  0  0
 32 33  1  0  0  0  0
 33 26  1  0  0  0  0
 32 34  1  0  0  0  0
 34 35  1  0  0  0  0
 35 36  1  0  0  0  0
 36 37  1  0  0  0  0
 37 33  1  0  0  0  0
 30 38  1  0  0  0  0
 30 39  1  0  0  0  0
M  END
> <From>
www.bindingDB.org

> <BindingDB Reactant_set_id>
490530

> <Ligand InChI>
InChI=1S/C28H35ClN6O3S/c1-17(2)39(36,37)25-9-7-6-8-21(25)32-26-20(29)14-31-27(34-26)33-22-12-18-19(13-24(22)38-5)28(3,4)16-35-11-10-30-15-23(18)35/h6-9,12-14,17,23,30H,10-11,15-16H2,1-5H3,(H2,31,32,33,34)

> <Ligand InChI Key>
UFYSBFKFRFJYJT-UHFFFAOYSA-N

> <BindingDB MonomerID>
244028

> <BindingDB Ligand Name>
5-chloro-N4-(2-(isopropylsulfonyl)phenyl)-N2-(9-methoxy-7,7-dimethyl-1,3,4,6,7,11b-hexahydro-2H-pyrazino[2,1-a]isoquinolin-10-yl)pyrimidine-2,4-diamine::US10053458, 86

> <Target Name Assigned by Curator or DataSource>
ALK tyrosine kinase receptor

> <Target Source Organism According to Curator or DataSource>
Homo sapiens

> <Ki (nM)>


> <IC50 (nM)>
<10.00

> <Kd (nM)>


> <EC50 (nM)>


> <kon (M-1-s-1)>


> <koff (s-1)>


> <pH>


> <Temp C>
25.00

> <Curation/DataSource>
US Patent

> <Article DOI>


> <PMID>


> <PubChem AID>


> <Patent Number>
US10053458

> <Authors>
Yun, CS; Kim, HR; Cho, SY; Jung, HJ; Lee, K; Chae, CH; Lee, CO; Park, CH; Kim, P; Hwang, JY; Ha, JD; Ahn, SJ

> <Institution>
KOREA RESEARCH INSTITUTE OF CHEMICAL TECHNOLOGY

> <Link to Ligand in BindingDB>
http://www.bindingdb.org/bind/chemsearch/marvin/MolStructure.jsp?monomerid=244028

> <Link to Ligand-Target Pair in BindingDB>
http://www.bindingdb.org/jsp/dbsearch/PrimarySearch_ki.jsp?energyterm=kJ/mole&tag=pol&polymerid=5809&target=ALK+tyrosine+kinase+receptor&column=ki&startPg=0&Increment=50&submit=Search

> <Link to Ligand-Target Pair in BindingDB>
http://www.bindingdb.org/jsp/dbsearch/PrimarySearch_ki.jsp?energyterm=kJ/mole&tag=r21&monomerid=244028&enzyme=ALK+tyrosine+kinase+receptor&column=ki&startPg=0&Increment=50&submit=Search

> <Ligand HET ID in PDB>


> <PDB ID(s) for Ligand-Target Complex>


> <PubChem CID>
129048439

> <PubChem SID>
376221859

> <ChEBI ID of Ligand>


> <ChEMBL ID of Ligand>


> <DrugBank ID of Ligand>


> <IUPHAR_GRAC ID of Ligand>


> <KEGG ID of Ligand>


> <ZINC ID of Ligand>


> <Number of Protein Chains in Target (>1 implies a multichain complex)>
1

> <BindingDB Target Chain Sequence>
MGAIGLLWLLPLLLSTAAVGSGMGTGQRAGSPAAGPPLQPREPLSYSRLQRKSLAVDFVVPSLFRVYARDLLLPPSSSELKAGRPEARGSLALDCAPLLRLLGPAPGVSWTAGSPAPAEARTLSRVLKGGSVRKLRRAKQLVLELGEEAILEGCVGPPGEAAVGLLQFNLSELFSWWIRQGEGRLRIRLMPEKKASEVGREGRLSAAIRASQPRLLFQIFGTGHSSLESPTNMPSPSPDYFTWNLTWIMKDSFPFLSHRSRYGLECSFDFPCELEYSPPLHDLRNQSWSWRRIPSEEASQMDLLDGPGAERSKEMPRGSFLLLNTSADSKHTILSPWMRSSSEHCTLAVSVHRHLQPSGRYIAQLLPHNEAAREILLMPTPGKHGWTVLQGRIGRPDNPFRVALEYISSGNRSLSAVDFFALKNCSEGTSPGSKMALQSSFTCWNGTVLQLGQACDFHQDCAQGEDESQMCRKLPVGFYCNFEDGFCGWTQGTLSPHTPQWQVRTLKDARFQDHQDHALLLSTTDVPASESATVTSATFPAPIKSSPCELRMSWLIRGVLRGNVSLVLVENKTGKEQGRMVWHVAAYEGLSLWQWMVLPLLDVSDRFWLQMVAWWGQGSRAIVAFDNISISLDCYLTISGEDKILQNTAPKSRNLFERNPNKELKPGENSPRQTPIFDPTVHWLFTTCGASGPHGPTQAQCNNAYQNSNLSVEVGSEGPLKGIQIWKVPATDTYSISGYGAAGGKGGKNTMMRSHGVSVLGIFNLEKDDMLYILVGQQGEDACPSTNQLIQKVCIGENNVIEEEIRVNRSVHEWAGGGGGGGGATYVFKMKDGVPVPLIIAAGGGGRAYGAKTDTFHPERLENNSSVLGLNGNSGAAGGGGGWNDNTSLLWAGKSLQEGATGGHSCPQAMKKWGWETRGGFGGGGGGCSSGGGGGGYIGGNAASNNDPEMDGEDGVSFISPLGILYTPALKVMEGHGEVNIKHYLNCSHCEVDECHMDPESHKVICFCDHGTVLAEDGVSCIVSPTPEPHLPLSLILSVVTSALVAALVLAFSGIMIVYRRKHQELQAMQMELQSPEYKLSKLRTSTIMTDYNPNYCFAGKTSSISDLKEVPRKNITLIRGLGHGAFGEVYEGQVSGMPNDPSPLQVAVKTLPEVCSEQDELDFLMEALIISKFNHQNIVRCIGVSLQSLPRFILLELMAGGDLKSFLRETRPRPSQPSSLAMLDLLHVARDIACGCQYLEENHFIHRDIAARNCLLTCPGPGRVAKIGDFGMARDIYRASYYRKGGCAMLPVKWMPPEAFMEGIFTSKTDTWSFGVLLWEIFSLGYMPYPSKSNQEVLEFVTSGGRMDPPKNCPGPVYRIMTQCWQHQPEDRPNFAIILERIEYCTQDPDVINTALPIEYGPLVEEEEKVPVRPKDPEGVPPLLVSQQAKREEERSPAAPPPLPTTSSGKAAKKPTAAEISVRVPRGPAVEGGHVNMAFSQSNPPSELHKVHGSRNKPTSLWNPTYGSWFTEKPTKKNNPIAKKEPHDRGNLGLEGSCTVPPNVATGRLPGASLLLEPSSLTANMKEVPLFRLRHFPCGNVNYGYQQQGLPLEAATAPGAGHYEDTILKSKNSMNQPGP

> <PDB ID(s) of Target Chain>
2XB7,2XBA,3AOX,5FTO,5FTQ,6E0R,6EBW,6EDL,6MX8

> <UniProt (SwissProt) Recommended Name of Target Chain>
ALK tyrosine kinase receptor

> <UniProt (SwissProt) Entry Name of Target Chain>
ALK_HUMAN

> <UniProt (SwissProt) Primary ID of Target Chain>
Q9UM73

> <UniProt (SwissProt) Secondary ID(s) of Target Chain>
Q4ZFX9,Q53QQ6,Q53RZ4,Q59FI3,Q9Y4K6

> <UniProt (SwissProt) Alternative ID(s) of Target Chain>


> <UniProt (TrEMBL) Submitted Name of Target Chain>


> <UniProt (TrEMBL) Entry Name of Target Chain>


> <UniProt (TrEMBL) Primary ID of Target Chain>


> <UniProt (TrEMBL) Secondary ID(s) of Target Chain>


> <UniProt (TrEMBL) Alternative ID(s) of Target Chain>


$$$$
00256001.cdx
  Mrv0541 10181809492D          

 36 39  0  0  0  0            999 V2000
   -3.6276    1.9115    0.0000 C   0  0  0  0  0  0  0  0  0  0  0  0
   -3.6276    1.0865    0.0000 C   0  0  0  0  0  0  0  0  0  0  0  0
   -2.9131    0.6740    0.0000 C   0  0  0  0  0  0  0  0  0  0  0  0
   -2.1987    1.0865    0.0000 C   0  0  0  0  0  0  0  0  0  0  0  0
   -2.1987    1.9115    0.0000 C   0  0  0  0  0  0  0  0  0  0  0  0
   -2.9131    2.3240    0.0000 C   0  0  0  0  0  0  0  0  0  0  0  0
   -1.4842    0.6740    0.0000 N   0  0  0  0  0  0  0  0  0  0  0  0
   -0.7697    1.0865    0.0000 C   0  0  0  0  0  0  0  0  0  0  0  0
   -0.7697    1.9115    0.0000 C   0  0  0  0  0  0  0  0  0  0  0  0
   -1.4842    2.3240    0.0000 S   0  0  0  0  0  0  0  0  0  0  0  0
   -1.4842   -0.1510    0.0000 C   0  0  0  0  0  0  0  0  0  0  0  0
   -0.0553    2.3240    0.0000 C   0  0  0  0  0  0  0  0  0  0  0  0
   -1.0717    3.0385    0.0000 O   0  0  0  0  0  0  0  0  0  0  0  0
   -2.0676    2.9074    0.0000 O   0  0  0  0  0  0  0  0  0  0  0  0
   -2.1987   -0.5635    0.0000 C   0  0  0  0  0  0  0  0  0  0  0  0
   -2.1987   -1.3885    0.0000 C   0  0  0  0  0  0  0  0  0  0  0  0
   -1.4842   -1.8010    0.0000 N   0  0  0  0  0  0  0  0  0  0  0  0
   -0.7697   -1.3885    0.0000 C   0  0  0  0  0  0  0  0  0  0  0  0
   -0.7697   -0.5635    0.0000 N   0  0  0  0  0  0  0  0  0  0  0  0
   -2.9131   -0.1510    0.0000 Cl  0  0  0  0  0  0  0  0  0  0  0  0
   -0.0553   -1.8010    0.0000 N   0  0  0  0  0  0  0  0  0  0  0  0
    0.6592   -1.3885    0.0000 C   0  0  0  0  0  0  0  0  0  0  0  0
    1.3737   -1.8010    0.0000 C   0  0  0  0  0  0  0  0  0  0  0  0
    2.0881   -1.3885    0.0000 C   0  0  0  0  0  0  0  0  0  0  0  0
    2.0881   -0.5635    0.0000 C   0  0  0  0  0  0  0  0  0  0  0  0
    1.3737   -0.1510    0.0000 C   0  0  0  0  0  0  0  0  0  0  0  0
    0.6592   -0.5635    0.0000 C   0  0  0  0  0  0  0  0  0  0  0  0
    1.3737   -2.6260    0.0000 O   0  0  0  0  0  0  0  0  0  0  0  0
    2.0881   -3.0385    0.0000 C   0  0  0  0  0  0  0  0  0  0  0  0
    2.8026   -0.1510    0.0000 C   0  0  0  0  0  0  0  0  0  0  0  0
    2.8026    0.6740    0.0000 N   0  0  0  0  0  0  0  0  0  0  0  0
    2.0881    1.0865    0.0000 C   0  0  0  0  0  0  0  0  0  0  0  0
    1.3737    0.6740    0.0000 C   0  0  0  0  0  0  0  0  0  0  0  0
    3.2151   -0.8655    0.0000 C   0  0  0  0  0  0  0  0  0  0  0  0
    3.6276   -0.1510    0.0000 C   0  0  0  0  0  0  0  0  0  0  0  0
   -0.0553   -0.1510    0.0000 Br  0  0  0  0  0  0  0  0  0  0  0  0
  1  2  4  0  0  0  0
  2  3  4  0  0  0  0
  3  4  4  0  0  0  0
  4  5  4  0  0  0  0
  5  6  4  0  0  0  0
  6  1  4  0  0  0  0
  4  7  1  0  0  0  0
  8  9  1  0  0  0  0
  9 10  1  0  0  0  0
 10  5  1  0  0  0  0
  7 11  1  0  0  0  0
  9 12  1  0  0  0  0
 10 13  2  0  0  0  0
 10 14  2  0  0  0  0
 11 15  4  0  0  0  0
 15 16  4  0  0  0  0
 16 17  4  0  0  0  0
 17 18  4  0  0  0  0
 18 19  4  0  0  0  0
 19 11  4  0  0  0  0
 15 20  1  0  0  0  0
 18 21  1  0  0  0  0
 21 22  1  0  0  0  0
 22 23  4  0  0  0  0
 23 24  4  0  0  0  0
 24 25  4  0  0  0  0
 25 26  4  0  0  0  0
 26 27  4  0  0  0  0
 27 22  4  0  0  0  0
 23 28  1  0  0  0  0
 28 29  1  0  0  0  0
 25 30  1  0  0  0  0
 30 31  1  0  0  0  0
 31 32  1  0  0  0  0
 32 33  1  0  0  0  0
 33 26  1  0  0  0  0
 30 34  1  0  0  0  0
 30 35  1  0  0  0  0
 27 36  1  0  0  0  0
M  END
> <From>
www.bindingDB.org

> <BindingDB Reactant_set_id>
490532

> <Ligand InChI>
InChI=1S/C25H29BrClN5O3S/c1-14(2)36(33,34)20-9-7-6-8-18(20)30-23-17(27)13-28-24(32-23)31-22-19(35-5)12-16-15(21(22)26)10-11-29-25(16,3)4/h6-9,12-14,29H,10-11H2,1-5H3,(H2,28,30,31,32)

> <Ligand InChI Key>
LPMHBKGJGCUMEZ-UHFFFAOYSA-N

> <BindingDB MonomerID>
244029

> <BindingDB Ligand Name>
5-chloro-N4-(2-(isopropylsulfonyl)phenyl)-N2-(5-bromo-7-methoxy-1,1-dimethyl-1,2,3,4-tetrahydroisoquinolin-6-yl)pyrimidine-2,4-diamine::US10053458, 87

> <Target Name Assigned by Curator or DataSource>
ALK tyrosine kinase receptor

> <Target Source Organism According to Curator or DataSource>
Homo sapiens

> <Ki (nM)>


> <IC50 (nM)>
<10.00

> <Kd (nM)>


> <EC50 (nM)>


> <kon (M-1-s-1)>


> <koff (s-1)>


> <pH>


> <Temp C>
25.00

> <Curation/DataSource>
US Patent

> <Article DOI>


> <PMID>


> <PubChem AID>


> <Patent Number>
US10053458

> <Authors>
Yun, CS; Kim, HR; Cho, SY; Jung, HJ; Lee, K; Chae, CH; Lee, CO; Park, CH; Kim, P; Hwang, JY; Ha, JD; Ahn, SJ

> <Institution>
KOREA RESEARCH INSTITUTE OF CHEMICAL TECHNOLOGY

> <Link to Ligand in BindingDB>
http://www.bindingdb.org/bind/chemsearch/marvin/MolStructure.jsp?monomerid=244029

> <Link to Ligand-Target Pair in BindingDB>
http://www.bindingdb.org/jsp/dbsearch/PrimarySearch_ki.jsp?energyterm=kJ/mole&tag=pol&polymerid=5809&target=ALK+tyrosine+kinase+receptor&column=ki&startPg=0&Increment=50&submit=Search

> <Link to Ligand-Target Pair in BindingDB>
http://www.bindingdb.org/jsp/dbsearch/PrimarySearch_ki.jsp?energyterm=kJ/mole&tag=r21&monomerid=244029&enzyme=ALK+tyrosine+kinase+receptor&column=ki&startPg=0&Increment=50&submit=Search

> <Ligand HET ID in PDB>


> <PDB ID(s) for Ligand-Target Complex>


> <PubChem CID>
129048488

> <PubChem SID>
376221860

> <ChEBI ID of Ligand>


> <ChEMBL ID of Ligand>


> <DrugBank ID of Ligand>


> <IUPHAR_GRAC ID of Ligand>


> <KEGG ID of Ligand>


> <ZINC ID of Ligand>


> <Number of Protein Chains in Target (>1 implies a multichain complex)>
1

> <BindingDB Target Chain Sequence>
MGAIGLLWLLPLLLSTAAVGSGMGTGQRAGSPAAGPPLQPREPLSYSRLQRKSLAVDFVVPSLFRVYARDLLLPPSSSELKAGRPEARGSLALDCAPLLRLLGPAPGVSWTAGSPAPAEARTLSRVLKGGSVRKLRRAKQLVLELGEEAILEGCVGPPGEAAVGLLQFNLSELFSWWIRQGEGRLRIRLMPEKKASEVGREGRLSAAIRASQPRLLFQIFGTGHSSLESPTNMPSPSPDYFTWNLTWIMKDSFPFLSHRSRYGLECSFDFPCELEYSPPLHDLRNQSWSWRRIPSEEASQMDLLDGPGAERSKEMPRGSFLLLNTSADSKHTILSPWMRSSSEHCTLAVSVHRHLQPSGRYIAQLLPHNEAAREILLMPTPGKHGWTVLQGRIGRPDNPFRVALEYISSGNRSLSAVDFFALKNCSEGTSPGSKMALQSSFTCWNGTVLQLGQACDFHQDCAQGEDESQMCRKLPVGFYCNFEDGFCGWTQGTLSPHTPQWQVRTLKDARFQDHQDHALLLSTTDVPASESATVTSATFPAPIKSSPCELRMSWLIRGVLRGNVSLVLVENKTGKEQGRMVWHVAAYEGLSLWQWMVLPLLDVSDRFWLQMVAWWGQGSRAIVAFDNISISLDCYLTISGEDKILQNTAPKSRNLFERNPNKELKPGENSPRQTPIFDPTVHWLFTTCGASGPHGPTQAQCNNAYQNSNLSVEVGSEGPLKGIQIWKVPATDTYSISGYGAAGGKGGKNTMMRSHGVSVLGIFNLEKDDMLYILVGQQGEDACPSTNQLIQKVCIGENNVIEEEIRVNRSVHEWAGGGGGGGGATYVFKMKDGVPVPLIIAAGGGGRAYGAKTDTFHPERLENNSSVLGLNGNSGAAGGGGGWNDNTSLLWAGKSLQEGATGGHSCPQAMKKWGWETRGGFGGGGGGCSSGGGGGGYIGGNAASNNDPEMDGEDGVSFISPLGILYTPALKVMEGHGEVNIKHYLNCSHCEVDECHMDPESHKVICFCDHGTVLAEDGVSCIVSPTPEPHLPLSLILSVVTSALVAALVLAFSGIMIVYRRKHQELQAMQMELQSPEYKLSKLRTSTIMTDYNPNYCFAGKTSSISDLKEVPRKNITLIRGLGHGAFGEVYEGQVSGMPNDPSPLQVAVKTLPEVCSEQDELDFLMEALIISKFNHQNIVRCIGVSLQSLPRFILLELMAGGDLKSFLRETRPRPSQPSSLAMLDLLHVARDIACGCQYLEENHFIHRDIAARNCLLTCPGPGRVAKIGDFGMARDIYRASYYRKGGCAMLPVKWMPPEAFMEGIFTSKTDTWSFGVLLWEIFSLGYMPYPSKSNQEVLEFVTSGGRMDPPKNCPGPVYRIMTQCWQHQPEDRPNFAIILERIEYCTQDPDVINTALPIEYGPLVEEEEKVPVRPKDPEGVPPLLVSQQAKREEERSPAAPPPLPTTSSGKAAKKPTAAEISVRVPRGPAVEGGHVNMAFSQSNPPSELHKVHGSRNKPTSLWNPTYGSWFTEKPTKKNNPIAKKEPHDRGNLGLEGSCTVPPNVATGRLPGASLLLEPSSLTANMKEVPLFRLRHFPCGNVNYGYQQQGLPLEAATAPGAGHYEDTILKSKNSMNQPGP

> <PDB ID(s) of Target Chain>
2XB7,2XBA,3AOX,5FTO,5FTQ,6E0R,6EBW,6EDL,6MX8

> <UniProt (SwissProt) Recommended Name of Target Chain>
ALK tyrosine kinase receptor

> <UniProt (SwissProt) Entry Name of Target Chain>
ALK_HUMAN

> <UniProt (SwissProt) Primary ID of Target Chain>
Q9UM73

> <UniProt (SwissProt) Secondary ID(s) of Target Chain>
Q4ZFX9,Q53QQ6,Q53RZ4,Q59FI3,Q9Y4K6

> <UniProt (SwissProt) Alternative ID(s) of Target Chain>


> <UniProt (TrEMBL) Submitted Name of Target Chain>


> <UniProt (TrEMBL) Entry Name of Target Chain>


> <UniProt (TrEMBL) Primary ID of Target Chain>


> <UniProt (TrEMBL) Secondary ID(s) of Target Chain>


> <UniProt (TrEMBL) Alternative ID(s) of Target Chain>


$$$$
00257001.cdx
  Mrv0541 10181809492D          

 36 39  0  0  0  0            999 V2000
   -3.6276    1.9115    0.0000 C   0  0  0  0  0  0  0  0  0  0  0  0
   -3.6276    1.0865    0.0000 C   0  0  0  0  0  0  0  0  0  0  0  0
   -2.9131    0.6740    0.0000 C   0  0  0  0  0  0  0  0  0  0  0  0
   -2.1987    1.0865    0.0000 C   0  0  0  0  0  0  0  0  0  0  0  0
   -2.1987    1.9115    0.0000 C   0  0  0  0  0  0  0  0  0  0  0  0
   -2.9131    2.3240    0.0000 C   0  0  0  0  0  0  0  0  0  0  0  0
   -1.4842    0.6740    0.0000 N   0  0  0  0  0  0  0  0  0  0  0  0
   -0.7697    1.0865    0.0000 C   0  0  0  0  0  0  0  0  0  0  0  0
   -0.7697    1.9115    0.0000 C   0  0  0  0  0  0  0  0  0  0  0  0
   -1.4842    2.3240    0.0000 S   0  0  0  0  0  0  0  0  0  0  0  0
   -1.4842   -0.1510    0.0000 C   0  0  0  0  0  0  0  0  0  0  0  0
   -0.0553    2.3240    0.0000 C   0  0  0  0  0  0  0  0  0  0  0  0
   -1.0717    3.0385    0.0000 O   0  0  0  0  0  0  0  0  0  0  0  0
   -2.0676    2.9074    0.0000 O   0  0  0  0  0  0  0  0  0  0  0  0
   -2.1987   -0.5635    0.0000 C   0  0  0  0  0  0  0  0  0  0  0  0
   -2.1987   -1.3885    0.0000 C   0  0  0  0  0  0  0  0  0  0  0  0
   -1.4842   -1.8010    0.0000 N   0  0  0  0  0  0  0  0  0  0  0  0
   -0.7697   -1.3885    0.0000 C   0  0  0  0  0  0  0  0  0  0  0  0
   -0.7697   -0.5635    0.0000 N   0  0  0  0  0  0  0  0  0  0  0  0
   -2.9131   -0.1510    0.0000 Cl  0  0  0  0  0  0  0  0  0  0  0  0
   -0.0553   -1.8010    0.0000 N   0  0  0  0  0  0  0  0  0  0  0  0
    0.6592   -1.3885    0.0000 C   0  0  0  0  0  0  0  0  0  0  0  0
    1.3737   -1.8010    0.0000 C   0  0  0  0  0  0  0  0  0  0  0  0
    2.0881   -1.3885    0.0000 C   0  0  0  0  0  0  0  0  0  0  0  0
    2.0881   -0.5635    0.0000 C   0  0  0  0  0  0  0  0  0  0  0  0
    1.3737   -0.1510    0.0000 C   0  0  0  0  0  0  0  0  0  0  0  0
    0.6592   -0.5635    0.0000 C   0  0  0  0  0  0  0  0  0  0  0  0
    1.3737   -2.6260    0.0000 O   0  0  0  0  0  0  0  0  0  0  0  0
    2.0881   -3.0385    0.0000 C   0  0  0  0  0  0  0  0  0  0  0  0
    2.8026   -0.1510    0.0000 C   0  0  0  0  0  0  0  0  0  0  0  0
    2.8026    0.6740    0.0000 N   0  0  0  0  0  0  0  0  0  0  0  0
    2.0881    1.0865    0.0000 C   0  0  0  0  0  0  0  0  0  0  0  0
    1.3737    0.6740    0.0000 C   0  0  0  0  0  0  0  0  0  0  0  0
    3.2151   -0.8655    0.0000 C   0  0  0  0  0  0  0  0  0  0  0  0
    3.6276   -0.1510    0.0000 C   0  0  0  0  0  0  0  0  0  0  0  0
   -0.0553   -0.1510    0.0000 Cl  0  0  0  0  0  0  0  0  0  0  0  0
  1  2  4  0  0  0  0
  2  3  4  0  0  0  0
  3  4  4  0  0  0  0
  4  5  4  0  0  0  0
  5  6  4  0  0  0  0
  6  1  4  0  0  0  0
  4  7  1  0  0  0  0
  8  9  1  0  0  0  0
  9 10  1  0  0  0  0
 10  5  1  0  0  0  0
  7 11  1  0  0  0  0
  9 12  1  0  0  0  0
 10 13  2  0  0  0  0
 10 14  2  0  0  0  0
 11 15  4  0  0  0  0
 15 16  4  0  0  0  0
 16 17  4  0  0  0  0
 17 18  4  0  0  0  0
 18 19  4  0  0  0  0
 19 11  4  0  0  0  0
 15 20  1  0  0  0  0
 18 21  1  0  0  0  0
 21 22  1  0  0  0  0
 22 23  4  0  0  0  0
 23 24  4  0  0  0  0
 24 25  4  0  0  0  0
 25 26  4  0  0  0  0
 26 27  4  0  0  0  0
 27 22  4  0  0  0  0
 23 28  1  0  0  0  0
 28 29  1  0  0  0  0
 25 30  1  0  0  0  0
 30 31  1  0  0  0  0
 31 32  1  0  0  0  0
 32 33  1  0  0  0  0
 33 26  1  0  0  0  0
 30 34  1  0  0  0  0
 30 35  1  0  0  0  0
 27 36  1  0  0  0  0
M  END
> <From>
www.bindingDB.org

> <BindingDB Reactant_set_id>
490534

> <Ligand InChI>
InChI=1S/C25H29Cl2N5O3S/c1-14(2)36(33,34)20-9-7-6-8-18(20)30-23-17(26)13-28-24(32-23)31-22-19(35-5)12-16-15(21(22)27)10-11-29-25(16,3)4/h6-9,12-14,29H,10-11H2,1-5H3,(H2,28,30,31,32)

> <Ligand InChI Key>
QVQFDNMBACMBPQ-UHFFFAOYSA-N

> <BindingDB MonomerID>
244030

> <BindingDB Ligand Name>
5-chloro-N4-(2-(isopropylsulfonyl)phenyl)-N2-(5-chloro-7-methoxy-1,1-dimethyl-1,2,3,4-tetrahydroisoquinolin-6-yl)pyrimidine-2,4-diamine::US10053458, 88

> <Target Name Assigned by Curator or DataSource>
ALK tyrosine kinase receptor

> <Target Source Organism According to Curator or DataSource>
Homo sapiens

> <Ki (nM)>


> <IC50 (nM)>
<10.00

> <Kd (nM)>


> <EC50 (nM)>


> <kon (M-1-s-1)>


> <koff (s-1)>


> <pH>


> <Temp C>
25.00

> <Curation/DataSource>
US Patent

> <Article DOI>


> <PMID>


> <PubChem AID>


> <Patent Number>
US10053458

> <Authors>
Yun, CS; Kim, HR; Cho, SY; Jung, HJ; Lee, K; Chae, CH; Lee, CO; Park, CH; Kim, P; Hwang, JY; Ha, JD; Ahn, SJ

> <Institution>
KOREA RESEARCH INSTITUTE OF CHEMICAL TECHNOLOGY

> <Link to Ligand in BindingDB>
http://www.bindingdb.org/bind/chemsearch/marvin/MolStructure.jsp?monomerid=244030

> <Link to Ligand-Target Pair in BindingDB>
http://www.bindingdb.org/jsp/dbsearch/PrimarySearch_ki.jsp?energyterm=kJ/mole&tag=pol&polymerid=5809&target=ALK+tyrosine+kinase+receptor&column=ki&startPg=0&Increment=50&submit=Search

> <Link to Ligand-Target Pair in BindingDB>
http://www.bindingdb.org/jsp/dbsearch/PrimarySearch_ki.jsp?energyterm=kJ/mole&tag=r21&monomerid=244030&enzyme=ALK+tyrosine+kinase+receptor&column=ki&startPg=0&Increment=50&submit=Search

> <Ligand HET ID in PDB>


> <PDB ID(s) for Ligand-Target Complex>


> <PubChem CID>
129048555

> <PubChem SID>
376221861

> <ChEBI ID of Ligand>


> <ChEMBL ID of Ligand>


> <DrugBank ID of Ligand>


> <IUPHAR_GRAC ID of Ligand>


> <KEGG ID of Ligand>


> <ZINC ID of Ligand>


> <Number of Protein Chains in Target (>1 implies a multichain complex)>
1

> <BindingDB Target Chain Sequence>
MGAIGLLWLLPLLLSTAAVGSGMGTGQRAGSPAAGPPLQPREPLSYSRLQRKSLAVDFVVPSLFRVYARDLLLPPSSSELKAGRPEARGSLALDCAPLLRLLGPAPGVSWTAGSPAPAEARTLSRVLKGGSVRKLRRAKQLVLELGEEAILEGCVGPPGEAAVGLLQFNLSELFSWWIRQGEGRLRIRLMPEKKASEVGREGRLSAAIRASQPRLLFQIFGTGHSSLESPTNMPSPSPDYFTWNLTWIMKDSFPFLSHRSRYGLECSFDFPCELEYSPPLHDLRNQSWSWRRIPSEEASQMDLLDGPGAERSKEMPRGSFLLLNTSADSKHTILSPWMRSSSEHCTLAVSVHRHLQPSGRYIAQLLPHNEAAREILLMPTPGKHGWTVLQGRIGRPDNPFRVALEYISSGNRSLSAVDFFALKNCSEGTSPGSKMALQSSFTCWNGTVLQLGQACDFHQDCAQGEDESQMCRKLPVGFYCNFEDGFCGWTQGTLSPHTPQWQVRTLKDARFQDHQDHALLLSTTDVPASESATVTSATFPAPIKSSPCELRMSWLIRGVLRGNVSLVLVENKTGKEQGRMVWHVAAYEGLSLWQWMVLPLLDVSDRFWLQMVAWWGQGSRAIVAFDNISISLDCYLTISGEDKILQNTAPKSRNLFERNPNKELKPGENSPRQTPIFDPTVHWLFTTCGASGPHGPTQAQCNNAYQNSNLSVEVGSEGPLKGIQIWKVPATDTYSISGYGAAGGKGGKNTMMRSHGVSVLGIFNLEKDDMLYILVGQQGEDACPSTNQLIQKVCIGENNVIEEEIRVNRSVHEWAGGGGGGGGATYVFKMKDGVPVPLIIAAGGGGRAYGAKTDTFHPERLENNSSVLGLNGNSGAAGGGGGWNDNTSLLWAGKSLQEGATGGHSCPQAMKKWGWETRGGFGGGGGGCSSGGGGGGYIGGNAASNNDPEMDGEDGVSFISPLGILYTPALKVMEGHGEVNIKHYLNCSHCEVDECHMDPESHKVICFCDHGTVLAEDGVSCIVSPTPEPHLPLSLILSVVTSALVAALVLAFSGIMIVYRRKHQELQAMQMELQSPEYKLSKLRTSTIMTDYNPNYCFAGKTSSISDLKEVPRKNITLIRGLGHGAFGEVYEGQVSGMPNDPSPLQVAVKTLPEVCSEQDELDFLMEALIISKFNHQNIVRCIGVSLQSLPRFILLELMAGGDLKSFLRETRPRPSQPSSLAMLDLLHVARDIACGCQYLEENHFIHRDIAARNCLLTCPGPGRVAKIGDFGMARDIYRASYYRKGGCAMLPVKWMPPEAFMEGIFTSKTDTWSFGVLLWEIFSLGYMPYPSKSNQEVLEFVTSGGRMDPPKNCPGPVYRIMTQCWQHQPEDRPNFAIILERIEYCTQDPDVINTALPIEYGPLVEEEEKVPVRPKDPEGVPPLLVSQQAKREEERSPAAPPPLPTTSSGKAAKKPTAAEISVRVPRGPAVEGGHVNMAFSQSNPPSELHKVHGSRNKPTSLWNPTYGSWFTEKPTKKNNPIAKKEPHDRGNLGLEGSCTVPPNVATGRLPGASLLLEPSSLTANMKEVPLFRLRHFPCGNVNYGYQQQGLPLEAATAPGAGHYEDTILKSKNSMNQPGP

> <PDB ID(s) of Target Chain>
2XB7,2XBA,3AOX,5FTO,5FTQ,6E0R,6EBW,6EDL,6MX8

> <UniProt (SwissProt) Recommended Name of Target Chain>
ALK tyrosine kinase receptor

> <UniProt (SwissProt) Entry Name of Target Chain>
ALK_HUMAN

> <UniProt (SwissProt) Primary ID of Target Chain>
Q9UM73

> <UniProt (SwissProt) Secondary ID(s) of Target Chain>
Q4ZFX9,Q53QQ6,Q53RZ4,Q59FI3,Q9Y4K6

> <UniProt (SwissProt) Alternative ID(s) of Target Chain>


> <UniProt (TrEMBL) Submitted Name of Target Chain>


> <UniProt (TrEMBL) Entry Name of Target Chain>


> <UniProt (TrEMBL) Primary ID of Target Chain>


> <UniProt (TrEMBL) Secondary ID(s) of Target Chain>


> <UniProt (TrEMBL) Alternative ID(s) of Target Chain>


$$$$
00258001.cdx
  Mrv0541 10181809492D          

 36 39  0  0  0  0            999 V2000
   -3.5724    1.9115    0.0000 C   0  0  0  0  0  0  0  0  0  0  0  0
   -3.5724    1.0865    0.0000 C   0  0  0  0  0  0  0  0  0  0  0  0
   -2.8579    0.6740    0.0000 C   0  0  0  0  0  0  0  0  0  0  0  0
   -2.1434    1.0865    0.0000 C   0  0  0  0  0  0  0  0  0  0  0  0
   -2.1434    1.9115    0.0000 C   0  0  0  0  0  0  0  0  0  0  0  0
   -2.8579    2.3240    0.0000 C   0  0  0  0  0  0  0  0  0  0  0  0
   -1.4289    0.6740    0.0000 N   0  0  0  0  0  0  0  0  0  0  0  0
   -0.7145    1.0865    0.0000 C   0  0  0  0  0  0  0  0  0  0  0  0
   -0.7145    1.9115    0.0000 C   0  0  0  0  0  0  0  0  0  0  0  0
   -1.4289    2.3240    0.0000 S   0  0  0  0  0  0  0  0  0  0  0  0
   -1.4289   -0.1510    0.0000 C   0  0  0  0  0  0  0  0  0  0  0  0
    0.0000    2.3240    0.0000 C   0  0  0  0  0  0  0  0  0  0  0  0
   -1.0164    3.0385    0.0000 O   0  0  0  0  0  0  0  0  0  0  0  0
   -2.0123    2.9074    0.0000 O   0  0  0  0  0  0  0  0  0  0  0  0
   -2.1434   -0.5635    0.0000 C   0  0  0  0  0  0  0  0  0  0  0  0
   -2.1434   -1.3885    0.0000 C   0  0  0  0  0  0  0  0  0  0  0  0
   -1.4289   -1.8010    0.0000 N   0  0  0  0  0  0  0  0  0  0  0  0
   -0.7145   -1.3885    0.0000 C   0  0  0  0  0  0  0  0  0  0  0  0
   -0.7145   -0.5635    0.0000 N   0  0  0  0  0  0  0  0  0  0  0  0
   -2.8579   -0.1510    0.0000 Cl  0  0  0  0  0  0  0  0  0  0  0  0
    0.0000   -1.8010    0.0000 N   0  0  0  0  0  0  0  0  0  0  0  0
    0.7145   -1.3885    0.0000 C   0  0  0  0  0  0  0  0  0  0  0  0
    1.4289   -1.8010    0.0000 C   0  0  0  0  0  0  0  0  0  0  0  0
    2.1434   -1.3885    0.0000 C   0  0  0  0  0  0  0  0  0  0  0  0
    2.1434   -0.5635    0.0000 C   0  0  0  0  0  0  0  0  0  0  0  0
    1.4289   -0.1510    0.0000 C   0  0  0  0  0  0  0  0  0  0  0  0
    0.7145   -0.5635    0.0000 C   0  0  0  0  0  0  0  0  0  0  0  0
    1.4289   -2.6260    0.0000 O   0  0  0  0  0  0  0  0  0  0  0  0
    2.1434   -3.0385    0.0000 C   0  0  0  0  0  0  0  0  0  0  0  0
    2.8579   -0.1510    0.0000 C   0  0  0  0  0  0  0  0  0  0  0  0
    2.8579    0.6740    0.0000 N   0  0  0  0  0  0  0  0  0  0  0  0
    2.1434    1.0865    0.0000 C   0  0  0  0  0  0  0  0  0  0  0  0
    1.4289    0.6740    0.0000 C   0  0  0  0  0  0  0  0  0  0  0  0
    3.5724   -0.5635    0.0000 C   0  0  0  0  0  0  0  0  0  0  0  0
    3.5724    0.2615    0.0000 C   0  0  0  0  0  0  0  0  0  0  0  0
    2.8579   -1.8010    0.0000 Br  0  0  0  0  0  0  0  0  0  0  0  0
  1  2  4  0  0  0  0
  2  3  4  0  0  0  0
  3  4  4  0  0  0  0
  4  5  4  0  0  0  0
  5  6  4  0  0  0  0
  6  1  4  0  0  0  0
  4  7  1  0  0  0  0
  8  9  1  0  0  0  0
  9 10  1  0  0  0  0
 10  5  1  0  0  0  0
  7 11  1  0  0  0  0
  9 12  1  0  0  0  0
 10 13  2  0  0  0  0
 10 14  2  0  0  0  0
 11 15  4  0  0  0  0
 15 16  4  0  0  0  0
 16 17  4  0  0  0  0
 17 18  4  0  0  0  0
 18 19  4  0  0  0  0
 19 11  4  0  0  0  0
 15 20  1  0  0  0  0
 18 21  1  0  0  0  0
 21 22  1  0  0  0  0
 22 23  4  0  0  0  0
 23 24  4  0  0  0  0
 24 25  4  0  0  0  0
 25 26  4  0  0  0  0
 26 27  4  0  0  0  0
 27 22  4  0  0  0  0
 23 28  1  0  0  0  0
 28 29  1  0  0  0  0
 25 30  1  0  0  0  0
 30 31  1  0  0  0  0
 31 32  1  0  0  0  0
 32 33  1  0  0  0  0
 33 26  1  0  0  0  0
 30 34  1  0  0  0  0
 30 35  1  0  0  0  0
 24 36  1  0  0  0  0
M  END
> <From>
www.bindingDB.org

> <BindingDB Reactant_set_id>
490536

> <Ligand InChI>
InChI=1S/C25H29BrClN5O3S/c1-14(2)36(33,34)19-9-7-6-8-17(19)30-23-16(27)13-28-24(32-23)31-18-12-15-10-11-29-25(3,4)20(15)21(26)22(18)35-5/h6-9,12-14,29H,10-11H2,1-5H3,(H2,28,30,31,32)

> <Ligand InChI Key>
VUIDUIJNUDLDRB-UHFFFAOYSA-N

> <BindingDB MonomerID>
244031

> <BindingDB Ligand Name>
5-chloro-N4-(2-(isopropylsulfonyl)phenyl)-N2-(8-bromo-7-methoxy-1,1-dimethyl-1,2,3,4-tetrahydroisoquinolin-6-yl)pyrimidine-2,4-diamine::US10053458, 89

> <Target Name Assigned by Curator or DataSource>
ALK tyrosine kinase receptor

> <Target Source Organism According to Curator or DataSource>
Homo sapiens

> <Ki (nM)>


> <IC50 (nM)>
<10.00

> <Kd (nM)>


> <EC50 (nM)>


> <kon (M-1-s-1)>


> <koff (s-1)>


> <pH>


> <Temp C>
25.00

> <Curation/DataSource>
US Patent

> <Article DOI>


> <PMID>


> <PubChem AID>


> <Patent Number>
US10053458

> <Authors>
Yun, CS; Kim, HR; Cho, SY; Jung, HJ; Lee, K; Chae, CH; Lee, CO; Park, CH; Kim, P; Hwang, JY; Ha, JD; Ahn, SJ

> <Institution>
KOREA RESEARCH INSTITUTE OF CHEMICAL TECHNOLOGY

> <Link to Ligand in BindingDB>
http://www.bindingdb.org/bind/chemsearch/marvin/MolStructure.jsp?monomerid=244031

> <Link to Ligand-Target Pair in BindingDB>
http://www.bindingdb.org/jsp/dbsearch/PrimarySearch_ki.jsp?energyterm=kJ/mole&tag=pol&polymerid=5809&target=ALK+tyrosine+kinase+receptor&column=ki&startPg=0&Increment=50&submit=Search

> <Link to Ligand-Target Pair in BindingDB>
http://www.bindingdb.org/jsp/dbsearch/PrimarySearch_ki.jsp?energyterm=kJ/mole&tag=r21&monomerid=244031&enzyme=ALK+tyrosine+kinase+receptor&column=ki&startPg=0&Increment=50&submit=Search

> <Ligand HET ID in PDB>


> <PDB ID(s) for Ligand-Target Complex>


> <PubChem CID>
129048558

> <PubChem SID>
376221862

> <ChEBI ID of Ligand>


> <ChEMBL ID of Ligand>


> <DrugBank ID of Ligand>


> <IUPHAR_GRAC ID of Ligand>


> <KEGG ID of Ligand>


> <ZINC ID of Ligand>


> <Number of Protein Chains in Target (>1 implies a multichain complex)>
1

> <BindingDB Target Chain Sequence>
MGAIGLLWLLPLLLSTAAVGSGMGTGQRAGSPAAGPPLQPREPLSYSRLQRKSLAVDFVVPSLFRVYARDLLLPPSSSELKAGRPEARGSLALDCAPLLRLLGPAPGVSWTAGSPAPAEARTLSRVLKGGSVRKLRRAKQLVLELGEEAILEGCVGPPGEAAVGLLQFNLSELFSWWIRQGEGRLRIRLMPEKKASEVGREGRLSAAIRASQPRLLFQIFGTGHSSLESPTNMPSPSPDYFTWNLTWIMKDSFPFLSHRSRYGLECSFDFPCELEYSPPLHDLRNQSWSWRRIPSEEASQMDLLDGPGAERSKEMPRGSFLLLNTSADSKHTILSPWMRSSSEHCTLAVSVHRHLQPSGRYIAQLLPHNEAAREILLMPTPGKHGWTVLQGRIGRPDNPFRVALEYISSGNRSLSAVDFFALKNCSEGTSPGSKMALQSSFTCWNGTVLQLGQACDFHQDCAQGEDESQMCRKLPVGFYCNFEDGFCGWTQGTLSPHTPQWQVRTLKDARFQDHQDHALLLSTTDVPASESATVTSATFPAPIKSSPCELRMSWLIRGVLRGNVSLVLVENKTGKEQGRMVWHVAAYEGLSLWQWMVLPLLDVSDRFWLQMVAWWGQGSRAIVAFDNISISLDCYLTISGEDKILQNTAPKSRNLFERNPNKELKPGENSPRQTPIFDPTVHWLFTTCGASGPHGPTQAQCNNAYQNSNLSVEVGSEGPLKGIQIWKVPATDTYSISGYGAAGGKGGKNTMMRSHGVSVLGIFNLEKDDMLYILVGQQGEDACPSTNQLIQKVCIGENNVIEEEIRVNRSVHEWAGGGGGGGGATYVFKMKDGVPVPLIIAAGGGGRAYGAKTDTFHPERLENNSSVLGLNGNSGAAGGGGGWNDNTSLLWAGKSLQEGATGGHSCPQAMKKWGWETRGGFGGGGGGCSSGGGGGGYIGGNAASNNDPEMDGEDGVSFISPLGILYTPALKVMEGHGEVNIKHYLNCSHCEVDECHMDPESHKVICFCDHGTVLAEDGVSCIVSPTPEPHLPLSLILSVVTSALVAALVLAFSGIMIVYRRKHQELQAMQMELQSPEYKLSKLRTSTIMTDYNPNYCFAGKTSSISDLKEVPRKNITLIRGLGHGAFGEVYEGQVSGMPNDPSPLQVAVKTLPEVCSEQDELDFLMEALIISKFNHQNIVRCIGVSLQSLPRFILLELMAGGDLKSFLRETRPRPSQPSSLAMLDLLHVARDIACGCQYLEENHFIHRDIAARNCLLTCPGPGRVAKIGDFGMARDIYRASYYRKGGCAMLPVKWMPPEAFMEGIFTSKTDTWSFGVLLWEIFSLGYMPYPSKSNQEVLEFVTSGGRMDPPKNCPGPVYRIMTQCWQHQPEDRPNFAIILERIEYCTQDPDVINTALPIEYGPLVEEEEKVPVRPKDPEGVPPLLVSQQAKREEERSPAAPPPLPTTSSGKAAKKPTAAEISVRVPRGPAVEGGHVNMAFSQSNPPSELHKVHGSRNKPTSLWNPTYGSWFTEKPTKKNNPIAKKEPHDRGNLGLEGSCTVPPNVATGRLPGASLLLEPSSLTANMKEVPLFRLRHFPCGNVNYGYQQQGLPLEAATAPGAGHYEDTILKSKNSMNQPGP

> <PDB ID(s) of Target Chain>
2XB7,2XBA,3AOX,5FTO,5FTQ,6E0R,6EBW,6EDL,6MX8

> <UniProt (SwissProt) Recommended Name of Target Chain>
ALK tyrosine kinase receptor

> <UniProt (SwissProt) Entry Name of Target Chain>
ALK_HUMAN

> <UniProt (SwissProt) Primary ID of Target Chain>
Q9UM73

> <UniProt (SwissProt) Secondary ID(s) of Target Chain>
Q4ZFX9,Q53QQ6,Q53RZ4,Q59FI3,Q9Y4K6

> <UniProt (SwissProt) Alternative ID(s) of Target Chain>


> <UniProt (TrEMBL) Submitted Name of Target Chain>


> <UniProt (TrEMBL) Entry Name of Target Chain>


> <UniProt (TrEMBL) Primary ID of Target Chain>


> <UniProt (TrEMBL) Secondary ID(s) of Target Chain>


> <UniProt (TrEMBL) Alternative ID(s) of Target Chain>


$$$$
00263001.cdx
  Mrv0541 10181809492D          

 36 39  0  0  0  0            999 V2000
   -3.5724    1.9115    0.0000 C   0  0  0  0  0  0  0  0  0  0  0  0
   -3.5724    1.0865    0.0000 C   0  0  0  0  0  0  0  0  0  0  0  0
   -2.8579    0.6740    0.0000 C   0  0  0  0  0  0  0  0  0  0  0  0
   -2.1434    1.0865    0.0000 C   0  0  0  0  0  0  0  0  0  0  0  0
   -2.1434    1.9115    0.0000 C   0  0  0  0  0  0  0  0  0  0  0  0
   -2.8579    2.3240    0.0000 C   0  0  0  0  0  0  0  0  0  0  0  0
   -1.4289    0.6740    0.0000 N   0  0  0  0  0  0  0  0  0  0  0  0
   -0.7145    1.0865    0.0000 C   0  0  0  0  0  0  0  0  0  0  0  0
   -0.7145    1.9115    0.0000 C   0  0  0  0  0  0  0  0  0  0  0  0
   -1.4289    2.3240    0.0000 S   0  0  0  0  0  0  0  0  0  0  0  0
   -1.4289   -0.1510    0.0000 C   0  0  0  0  0  0  0  0  0  0  0  0
    0.0000    2.3240    0.0000 C   0  0  0  0  0  0  0  0  0  0  0  0
   -1.0164    3.0385    0.0000 O   0  0  0  0  0  0  0  0  0  0  0  0
   -2.0123    2.9074    0.0000 O   0  0  0  0  0  0  0  0  0  0  0  0
   -2.1434   -0.5635    0.0000 C   0  0  0  0  0  0  0  0  0  0  0  0
   -2.1434   -1.3885    0.0000 C   0  0  0  0  0  0  0  0  0  0  0  0
   -1.4289   -1.8010    0.0000 N   0  0  0  0  0  0  0  0  0  0  0  0
   -0.7145   -1.3885    0.0000 C   0  0  0  0  0  0  0  0  0  0  0  0
   -0.7145   -0.5635    0.0000 N   0  0  0  0  0  0  0  0  0  0  0  0
   -2.8579   -0.1510    0.0000 Cl  0  0  0  0  0  0  0  0  0  0  0  0
    0.0000   -1.8010    0.0000 N   0  0  0  0  0  0  0  0  0  0  0  0
    0.7145   -1.3885    0.0000 C   0  0  0  0  0  0  0  0  0  0  0  0
    1.4289   -1.8010    0.0000 C   0  0  0  0  0  0  0  0  0  0  0  0
    2.1434   -1.3885    0.0000 C   0  0  0  0  0  0  0  0  0  0  0  0
    2.1434   -0.5635    0.0000 C   0  0  0  0  0  0  0  0  0  0  0  0
    1.4289   -0.1510    0.0000 C   0  0  0  0  0  0  0  0  0  0  0  0
    0.7145   -0.5635    0.0000 C   0  0  0  0  0  0  0  0  0  0  0  0
    1.4289   -2.6260    0.0000 O   0  0  0  0  0  0  0  0  0  0  0  0
    2.1434   -3.0385    0.0000 C   0  0  0  0  0  0  0  0  0  0  0  0
    2.8579   -0.1510    0.0000 C   0  0  0  0  0  0  0  0  0  0  0  0
    2.8579    0.6740    0.0000 N   0  0  0  0  0  0  0  0  0  0  0  0
    2.1434    1.0865    0.0000 C   0  0  0  0  0  0  0  0  0  0  0  0
    1.4289    0.6740    0.0000 C   0  0  0  0  0  0  0  0  0  0  0  0
    3.5724   -0.5635    0.0000 C   0  0  0  0  0  0  0  0  0  0  0  0
    3.5724    0.2615    0.0000 C   0  0  0  0  0  0  0  0  0  0  0  0
    2.8579   -1.8010    0.0000 Cl  0  0  0  0  0  0  0  0  0  0  0  0
  1  2  4  0  0  0  0
  2  3  4  0  0  0  0
  3  4  4  0  0  0  0
  4  5  4  0  0  0  0
  5  6  4  0  0  0  0
  6  1  4  0  0  0  0
  4  7  1  0  0  0  0
  8  9  1  0  0  0  0
  9 10  1  0  0  0  0
 10  5  1  0  0  0  0
  7 11  1  0  0  0  0
  9 12  1  0  0  0  0
 10 13  2  0  0  0  0
 10 14  2  0  0  0  0
 11 15  4  0  0  0  0
 15 16  4  0  0  0  0
 16 17  4  0  0  0  0
 17 18  4  0  0  0  0
 18 19  4  0  0  0  0
 19 11  4  0  0  0  0
 15 20  1  0  0  0  0
 18 21  1  0  0  0  0
 21 22  1  0  0  0  0
 22 23  4  0  0  0  0
 23 24  4  0  0  0  0
 24 25  4  0  0  0  0
 25 26  4  0  0  0  0
 26 27  4  0  0  0  0
 27 22  4  0  0  0  0
 23 28  1  0  0  0  0
 28 29  1  0  0  0  0
 25 30  1  0  0  0  0
 30 31  1  0  0  0  0
 31 32  1  0  0  0  0
 32 33  1  0  0  0  0
 33 26  1  0  0  0  0
 30 34  1  0  0  0  0
 30 35  1  0  0  0  0
 24 36  1  0  0  0  0
M  END
> <From>
www.bindingDB.org

> <BindingDB Reactant_set_id>
490538

> <Ligand InChI>
InChI=1S/C25H29Cl2N5O3S/c1-14(2)36(33,34)19-9-7-6-8-17(19)30-23-16(26)13-28-24(32-23)31-18-12-15-10-11-29-25(3,4)20(15)21(27)22(18)35-5/h6-9,12-14,29H,10-11H2,1-5H3,(H2,28,30,31,32)

> <Ligand InChI Key>
BDPOPILCFHJLFW-UHFFFAOYSA-N

> <BindingDB MonomerID>
244032

> <BindingDB Ligand Name>
5-chloro-N4-(2-(isopropylsulfonyl)phenyl)-N2-(8-chloro-7-methoxy-1,1-dimethyl-1,2,3,4-tetrahydroisoquinolin-6-yl)pyrimidine-2,4-diamine::US10053458, 90

> <Target Name Assigned by Curator or DataSource>
ALK tyrosine kinase receptor

> <Target Source Organism According to Curator or DataSource>
Homo sapiens

> <Ki (nM)>


> <IC50 (nM)>
<10.00

> <Kd (nM)>


> <EC50 (nM)>


> <kon (M-1-s-1)>


> <koff (s-1)>


> <pH>


> <Temp C>
25.00

> <Curation/DataSource>
US Patent

> <Article DOI>


> <PMID>


> <PubChem AID>


> <Patent Number>
US10053458

> <Authors>
Yun, CS; Kim, HR; Cho, SY; Jung, HJ; Lee, K; Chae, CH; Lee, CO; Park, CH; Kim, P; Hwang, JY; Ha, JD; Ahn, SJ

> <Institution>
KOREA RESEARCH INSTITUTE OF CHEMICAL TECHNOLOGY

> <Link to Ligand in BindingDB>
http://www.bindingdb.org/bind/chemsearch/marvin/MolStructure.jsp?monomerid=244032

> <Link to Ligand-Target Pair in BindingDB>
http://www.bindingdb.org/jsp/dbsearch/PrimarySearch_ki.jsp?energyterm=kJ/mole&tag=pol&polymerid=5809&target=ALK+tyrosine+kinase+receptor&column=ki&startPg=0&Increment=50&submit=Search

> <Link to Ligand-Target Pair in BindingDB>
http://www.bindingdb.org/jsp/dbsearch/PrimarySearch_ki.jsp?energyterm=kJ/mole&tag=r21&monomerid=244032&enzyme=ALK+tyrosine+kinase+receptor&column=ki&startPg=0&Increment=50&submit=Search

> <Ligand HET ID in PDB>


> <PDB ID(s) for Ligand-Target Complex>


> <PubChem CID>
129048545

> <PubChem SID>
376221863

> <ChEBI ID of Ligand>


> <ChEMBL ID of Ligand>


> <DrugBank ID of Ligand>


> <IUPHAR_GRAC ID of Ligand>


> <KEGG ID of Ligand>


> <ZINC ID of Ligand>


> <Number of Protein Chains in Target (>1 implies a multichain complex)>
1

> <BindingDB Target Chain Sequence>
MGAIGLLWLLPLLLSTAAVGSGMGTGQRAGSPAAGPPLQPREPLSYSRLQRKSLAVDFVVPSLFRVYARDLLLPPSSSELKAGRPEARGSLALDCAPLLRLLGPAPGVSWTAGSPAPAEARTLSRVLKGGSVRKLRRAKQLVLELGEEAILEGCVGPPGEAAVGLLQFNLSELFSWWIRQGEGRLRIRLMPEKKASEVGREGRLSAAIRASQPRLLFQIFGTGHSSLESPTNMPSPSPDYFTWNLTWIMKDSFPFLSHRSRYGLECSFDFPCELEYSPPLHDLRNQSWSWRRIPSEEASQMDLLDGPGAERSKEMPRGSFLLLNTSADSKHTILSPWMRSSSEHCTLAVSVHRHLQPSGRYIAQLLPHNEAAREILLMPTPGKHGWTVLQGRIGRPDNPFRVALEYISSGNRSLSAVDFFALKNCSEGTSPGSKMALQSSFTCWNGTVLQLGQACDFHQDCAQGEDESQMCRKLPVGFYCNFEDGFCGWTQGTLSPHTPQWQVRTLKDARFQDHQDHALLLSTTDVPASESATVTSATFPAPIKSSPCELRMSWLIRGVLRGNVSLVLVENKTGKEQGRMVWHVAAYEGLSLWQWMVLPLLDVSDRFWLQMVAWWGQGSRAIVAFDNISISLDCYLTISGEDKILQNTAPKSRNLFERNPNKELKPGENSPRQTPIFDPTVHWLFTTCGASGPHGPTQAQCNNAYQNSNLSVEVGSEGPLKGIQIWKVPATDTYSISGYGAAGGKGGKNTMMRSHGVSVLGIFNLEKDDMLYILVGQQGEDACPSTNQLIQKVCIGENNVIEEEIRVNRSVHEWAGGGGGGGGATYVFKMKDGVPVPLIIAAGGGGRAYGAKTDTFHPERLENNSSVLGLNGNSGAAGGGGGWNDNTSLLWAGKSLQEGATGGHSCPQAMKKWGWETRGGFGGGGGGCSSGGGGGGYIGGNAASNNDPEMDGEDGVSFISPLGILYTPALKVMEGHGEVNIKHYLNCSHCEVDECHMDPESHKVICFCDHGTVLAEDGVSCIVSPTPEPHLPLSLILSVVTSALVAALVLAFSGIMIVYRRKHQELQAMQMELQSPEYKLSKLRTSTIMTDYNPNYCFAGKTSSISDLKEVPRKNITLIRGLGHGAFGEVYEGQVSGMPNDPSPLQVAVKTLPEVCSEQDELDFLMEALIISKFNHQNIVRCIGVSLQSLPRFILLELMAGGDLKSFLRETRPRPSQPSSLAMLDLLHVARDIACGCQYLEENHFIHRDIAARNCLLTCPGPGRVAKIGDFGMARDIYRASYYRKGGCAMLPVKWMPPEAFMEGIFTSKTDTWSFGVLLWEIFSLGYMPYPSKSNQEVLEFVTSGGRMDPPKNCPGPVYRIMTQCWQHQPEDRPNFAIILERIEYCTQDPDVINTALPIEYGPLVEEEEKVPVRPKDPEGVPPLLVSQQAKREEERSPAAPPPLPTTSSGKAAKKPTAAEISVRVPRGPAVEGGHVNMAFSQSNPPSELHKVHGSRNKPTSLWNPTYGSWFTEKPTKKNNPIAKKEPHDRGNLGLEGSCTVPPNVATGRLPGASLLLEPSSLTANMKEVPLFRLRHFPCGNVNYGYQQQGLPLEAATAPGAGHYEDTILKSKNSMNQPGP

> <PDB ID(s) of Target Chain>
2XB7,2XBA,3AOX,5FTO,5FTQ,6E0R,6EBW,6EDL,6MX8

> <UniProt (SwissProt) Recommended Name of Target Chain>
ALK tyrosine kinase receptor

> <UniProt (SwissProt) Entry Name of Target Chain>
ALK_HUMAN

> <UniProt (SwissProt) Primary ID of Target Chain>
Q9UM73

> <UniProt (SwissProt) Secondary ID(s) of Target Chain>
Q4ZFX9,Q53QQ6,Q53RZ4,Q59FI3,Q9Y4K6

> <UniProt (SwissProt) Alternative ID(s) of Target Chain>


> <UniProt (TrEMBL) Submitted Name of Target Chain>


> <UniProt (TrEMBL) Entry Name of Target Chain>


> <UniProt (TrEMBL) Primary ID of Target Chain>


> <UniProt (TrEMBL) Secondary ID(s) of Target Chain>


> <UniProt (TrEMBL) Alternative ID(s) of Target Chain>


$$$$
00264001.cdx
  Mrv0541 10181809492D          

 36 39  0  0  0  0            999 V2000
   -3.5724    1.9115    0.0000 C   0  0  0  0  0  0  0  0  0  0  0  0
   -3.5724    1.0865    0.0000 C   0  0  0  0  0  0  0  0  0  0  0  0
   -2.8579    0.6740    0.0000 C   0  0  0  0  0  0  0  0  0  0  0  0
   -2.1434    1.0865    0.0000 C   0  0  0  0  0  0  0  0  0  0  0  0
   -2.1434    1.9115    0.0000 C   0  0  0  0  0  0  0  0  0  0  0  0
   -2.8579    2.3240    0.0000 C   0  0  0  0  0  0  0  0  0  0  0  0
   -1.4289    0.6740    0.0000 N   0  0  0  0  0  0  0  0  0  0  0  0
   -0.7145    1.0865    0.0000 C   0  0  0  0  0  0  0  0  0  0  0  0
   -0.7145    1.9115    0.0000 C   0  0  0  0  0  0  0  0  0  0  0  0
   -1.4289    2.3240    0.0000 S   0  0  0  0  0  0  0  0  0  0  0  0
   -1.4289   -0.1510    0.0000 C   0  0  0  0  0  0  0  0  0  0  0  0
    0.0000    2.3240    0.0000 C   0  0  0  0  0  0  0  0  0  0  0  0
   -1.0164    3.0385    0.0000 O   0  0  0  0  0  0  0  0  0  0  0  0
   -2.0123    2.9074    0.0000 O   0  0  0  0  0  0  0  0  0  0  0  0
   -2.1434   -0.5635    0.0000 C   0  0  0  0  0  0  0  0  0  0  0  0
   -2.1434   -1.3885    0.0000 C   0  0  0  0  0  0  0  0  0  0  0  0
   -1.4289   -1.8010    0.0000 N   0  0  0  0  0  0  0  0  0  0  0  0
   -0.7145   -1.3885    0.0000 C   0  0  0  0  0  0  0  0  0  0  0  0
   -0.7145   -0.5635    0.0000 N   0  0  0  0  0  0  0  0  0  0  0  0
   -2.8579   -0.1510    0.0000 Cl  0  0  0  0  0  0  0  0  0  0  0  0
    0.0000   -1.8010    0.0000 N   0  0  0  0  0  0  0  0  0  0  0  0
    0.7145   -1.3885    0.0000 C   0  0  0  0  0  0  0  0  0  0  0  0
    1.4289   -1.8010    0.0000 C   0  0  0  0  0  0  0  0  0  0  0  0
    2.1434   -1.3885    0.0000 C   0  0  0  0  0  0  0  0  0  0  0  0
    2.1434   -0.5635    0.0000 C   0  0  0  0  0  0  0  0  0  0  0  0
    1.4289   -0.1510    0.0000 C   0  0  0  0  0  0  0  0  0  0  0  0
    0.7145   -0.5635    0.0000 C   0  0  0  0  0  0  0  0  0  0  0  0
    1.4289   -2.6260    0.0000 O   0  0  0  0  0  0  0  0  0  0  0  0
    2.1434   -3.0385    0.0000 C   0  0  0  0  0  0  0  0  0  0  0  0
    2.8579   -0.1510    0.0000 C   0  0  0  0  0  0  0  0  0  0  0  0
    2.8579    0.6740    0.0000 C   0  0  0  0  0  0  0  0  0  0  0  0
    2.1434    1.0865    0.0000 N   0  0  0  0  0  0  0  0  0  0  0  0
    1.4289    0.6740    0.0000 C   0  0  0  0  0  0  0  0  0  0  0  0
    3.5724   -0.5635    0.0000 C   0  0  0  0  0  0  0  0  0  0  0  0
    3.5724    0.2615    0.0000 C   0  0  0  0  0  0  0  0  0  0  0  0
    2.1434    1.9115    0.0000 C   0  0  0  0  0  0  0  0  0  0  0  0
  1  2  4  0  0  0  0
  2  3  4  0  0  0  0
  3  4  4  0  0  0  0
  4  5  4  0  0  0  0
  5  6  4  0  0  0  0
  6  1  4  0  0  0  0
  4  7  1  0  0  0  0
  8  9  1  0  0  0  0
  9 10  1  0  0  0  0
 10  5  1  0  0  0  0
  7 11  1  0  0  0  0
  9 12  1  0  0  0  0
 10 13  2  0  0  0  0
 10 14  2  0  0  0  0
 11 15  4  0  0  0  0
 15 16  4  0  0  0  0
 16 17  4  0  0  0  0
 17 18  4  0  0  0  0
 18 19  4  0  0  0  0
 19 11  4  0  0  0  0
 15 20  1  0  0  0  0
 18 21  1  0  0  0  0
 21 22  1  0  0  0  0
 22 23  4  0  0  0  0
 23 24  4  0  0  0  0
 24 25  4  0  0  0  0
 25 26  4  0  0  0  0
 26 27  4  0  0  0  0
 27 22  4  0  0  0  0
 23 28  1  0  0  0  0
 28 29  1  0  0  0  0
 25 30  1  0  0  0  0
 30 31  1  0  0  0  0
 31 32  1  0  0  0  0
 32 33  1  0  0  0  0
 33 26  1  0  0  0  0
 30 34  1  0  0  0  0
 30 35  1  0  0  0  0
 32 36  1  0  0  0  0
M  END
> <From>
www.bindingDB.org

> <BindingDB Reactant_set_id>
490540

> <Ligand InChI>
InChI=1S/C26H32ClN5O3S/c1-16(2)36(33,34)23-10-8-7-9-20(23)29-24-19(27)13-28-25(31-24)30-21-11-17-14-32(5)15-26(3,4)18(17)12-22(21)35-6/h7-13,16H,14-15H2,1-6H3,(H2,28,29,30,31)

> <Ligand InChI Key>
FQXRNUOKLXEFHM-UHFFFAOYSA-N

> <BindingDB MonomerID>
244033

> <BindingDB Ligand Name>
5-chloro-N4-(2-(isopropylsulfonyl)phenyl)-N2-(6-methoxy-2,4,4-trimethyl-1,2,3,4-tetrahydroisoquinolin-7-yl)pyrimidine-2,4-diamine::US10053458, 91

> <Target Name Assigned by Curator or DataSource>
ALK tyrosine kinase receptor

> <Target Source Organism According to Curator or DataSource>
Homo sapiens

> <Ki (nM)>


> <IC50 (nM)>
<10.00

> <Kd (nM)>


> <EC50 (nM)>


> <kon (M-1-s-1)>


> <koff (s-1)>


> <pH>


> <Temp C>
25.00

> <Curation/DataSource>
US Patent

> <Article DOI>


> <PMID>


> <PubChem AID>


> <Patent Number>
US10053458

> <Authors>
Yun, CS; Kim, HR; Cho, SY; Jung, HJ; Lee, K; Chae, CH; Lee, CO; Park, CH; Kim, P; Hwang, JY; Ha, JD; Ahn, SJ

> <Institution>
KOREA RESEARCH INSTITUTE OF CHEMICAL TECHNOLOGY

> <Link to Ligand in BindingDB>
http://www.bindingdb.org/bind/chemsearch/marvin/MolStructure.jsp?monomerid=244033

> <Link to Ligand-Target Pair in BindingDB>
http://www.bindingdb.org/jsp/dbsearch/PrimarySearch_ki.jsp?energyterm=kJ/mole&tag=pol&polymerid=5809&target=ALK+tyrosine+kinase+receptor&column=ki&startPg=0&Increment=50&submit=Search

> <Link to Ligand-Target Pair in BindingDB>
http://www.bindingdb.org/jsp/dbsearch/PrimarySearch_ki.jsp?energyterm=kJ/mole&tag=r21&monomerid=244033&enzyme=ALK+tyrosine+kinase+receptor&column=ki&startPg=0&Increment=50&submit=Search

> <Ligand HET ID in PDB>


> <PDB ID(s) for Ligand-Target Complex>


> <PubChem CID>
129048566

> <PubChem SID>
376221864

> <ChEBI ID of Ligand>


> <ChEMBL ID of Ligand>


> <DrugBank ID of Ligand>


> <IUPHAR_GRAC ID of Ligand>


> <KEGG ID of Ligand>


> <ZINC ID of Ligand>


> <Number of Protein Chains in Target (>1 implies a multichain complex)>
1

> <BindingDB Target Chain Sequence>
MGAIGLLWLLPLLLSTAAVGSGMGTGQRAGSPAAGPPLQPREPLSYSRLQRKSLAVDFVVPSLFRVYARDLLLPPSSSELKAGRPEARGSLALDCAPLLRLLGPAPGVSWTAGSPAPAEARTLSRVLKGGSVRKLRRAKQLVLELGEEAILEGCVGPPGEAAVGLLQFNLSELFSWWIRQGEGRLRIRLMPEKKASEVGREGRLSAAIRASQPRLLFQIFGTGHSSLESPTNMPSPSPDYFTWNLTWIMKDSFPFLSHRSRYGLECSFDFPCELEYSPPLHDLRNQSWSWRRIPSEEASQMDLLDGPGAERSKEMPRGSFLLLNTSADSKHTILSPWMRSSSEHCTLAVSVHRHLQPSGRYIAQLLPHNEAAREILLMPTPGKHGWTVLQGRIGRPDNPFRVALEYISSGNRSLSAVDFFALKNCSEGTSPGSKMALQSSFTCWNGTVLQLGQACDFHQDCAQGEDESQMCRKLPVGFYCNFEDGFCGWTQGTLSPHTPQWQVRTLKDARFQDHQDHALLLSTTDVPASESATVTSATFPAPIKSSPCELRMSWLIRGVLRGNVSLVLVENKTGKEQGRMVWHVAAYEGLSLWQWMVLPLLDVSDRFWLQMVAWWGQGSRAIVAFDNISISLDCYLTISGEDKILQNTAPKSRNLFERNPNKELKPGENSPRQTPIFDPTVHWLFTTCGASGPHGPTQAQCNNAYQNSNLSVEVGSEGPLKGIQIWKVPATDTYSISGYGAAGGKGGKNTMMRSHGVSVLGIFNLEKDDMLYILVGQQGEDACPSTNQLIQKVCIGENNVIEEEIRVNRSVHEWAGGGGGGGGATYVFKMKDGVPVPLIIAAGGGGRAYGAKTDTFHPERLENNSSVLGLNGNSGAAGGGGGWNDNTSLLWAGKSLQEGATGGHSCPQAMKKWGWETRGGFGGGGGGCSSGGGGGGYIGGNAASNNDPEMDGEDGVSFISPLGILYTPALKVMEGHGEVNIKHYLNCSHCEVDECHMDPESHKVICFCDHGTVLAEDGVSCIVSPTPEPHLPLSLILSVVTSALVAALVLAFSGIMIVYRRKHQELQAMQMELQSPEYKLSKLRTSTIMTDYNPNYCFAGKTSSISDLKEVPRKNITLIRGLGHGAFGEVYEGQVSGMPNDPSPLQVAVKTLPEVCSEQDELDFLMEALIISKFNHQNIVRCIGVSLQSLPRFILLELMAGGDLKSFLRETRPRPSQPSSLAMLDLLHVARDIACGCQYLEENHFIHRDIAARNCLLTCPGPGRVAKIGDFGMARDIYRASYYRKGGCAMLPVKWMPPEAFMEGIFTSKTDTWSFGVLLWEIFSLGYMPYPSKSNQEVLEFVTSGGRMDPPKNCPGPVYRIMTQCWQHQPEDRPNFAIILERIEYCTQDPDVINTALPIEYGPLVEEEEKVPVRPKDPEGVPPLLVSQQAKREEERSPAAPPPLPTTSSGKAAKKPTAAEISVRVPRGPAVEGGHVNMAFSQSNPPSELHKVHGSRNKPTSLWNPTYGSWFTEKPTKKNNPIAKKEPHDRGNLGLEGSCTVPPNVATGRLPGASLLLEPSSLTANMKEVPLFRLRHFPCGNVNYGYQQQGLPLEAATAPGAGHYEDTILKSKNSMNQPGP

> <PDB ID(s) of Target Chain>
2XB7,2XBA,3AOX,5FTO,5FTQ,6E0R,6EBW,6EDL,6MX8

> <UniProt (SwissProt) Recommended Name of Target Chain>
ALK tyrosine kinase receptor

> <UniProt (SwissProt) Entry Name of Target Chain>
ALK_HUMAN

> <UniProt (SwissProt) Primary ID of Target Chain>
Q9UM73

> <UniProt (SwissProt) Secondary ID(s) of Target Chain>
Q4ZFX9,Q53QQ6,Q53RZ4,Q59FI3,Q9Y4K6

> <UniProt (SwissProt) Alternative ID(s) of Target Chain>


> <UniProt (TrEMBL) Submitted Name of Target Chain>


> <UniProt (TrEMBL) Entry Name of Target Chain>


> <UniProt (TrEMBL) Primary ID of Target Chain>


> <UniProt (TrEMBL) Secondary ID(s) of Target Chain>


> <UniProt (TrEMBL) Alternative ID(s) of Target Chain>


$$$$
00265001.cdx
  Mrv0541 10181809492D          

 37 40  0  0  0  0            999 V2000
   -3.5724    1.9115    0.0000 C   0  0  0  0  0  0  0  0  0  0  0  0
   -3.5724    1.0865    0.0000 C   0  0  0  0  0  0  0  0  0  0  0  0
   -2.8579    0.6740    0.0000 C   0  0  0  0  0  0  0  0  0  0  0  0
   -2.1434    1.0865    0.0000 C   0  0  0  0  0  0  0  0  0  0  0  0
   -2.1434    1.9115    0.0000 C   0  0  0  0  0  0  0  0  0  0  0  0
   -2.8579    2.3240    0.0000 C   0  0  0  0  0  0  0  0  0  0  0  0
   -1.4289    0.6740    0.0000 N   0  0  0  0  0  0  0  0  0  0  0  0
   -0.7145    1.0865    0.0000 C   0  0  0  0  0  0  0  0  0  0  0  0
   -0.7145    1.9115    0.0000 C   0  0  0  0  0  0  0  0  0  0  0  0
   -1.4289    2.3240    0.0000 S   0  0  0  0  0  0  0  0  0  0  0  0
   -1.4289   -0.1510    0.0000 C   0  0  0  0  0  0  0  0  0  0  0  0
    0.0000    2.3240    0.0000 C   0  0  0  0  0  0  0  0  0  0  0  0
   -1.0164    3.0385    0.0000 O   0  0  0  0  0  0  0  0  0  0  0  0
   -2.0123    2.9074    0.0000 O   0  0  0  0  0  0  0  0  0  0  0  0
   -2.1434   -0.5635    0.0000 C   0  0  0  0  0  0  0  0  0  0  0  0
   -2.1434   -1.3885    0.0000 C   0  0  0  0  0  0  0  0  0  0  0  0
   -1.4289   -1.8010    0.0000 N   0  0  0  0  0  0  0  0  0  0  0  0
   -0.7145   -1.3885    0.0000 C   0  0  0  0  0  0  0  0  0  0  0  0
   -0.7145   -0.5635    0.0000 N   0  0  0  0  0  0  0  0  0  0  0  0
   -2.8579   -0.1510    0.0000 Cl  0  0  0  0  0  0  0  0  0  0  0  0
    0.0000   -1.8010    0.0000 N   0  0  0  0  0  0  0  0  0  0  0  0
    0.7145   -1.3885    0.0000 C   0  0  0  0  0  0  0  0  0  0  0  0
    1.4289   -1.8010    0.0000 C   0  0  0  0  0  0  0  0  0  0  0  0
    2.1434   -1.3885    0.0000 C   0  0  0  0  0  0  0  0  0  0  0  0
    2.1434   -0.5635    0.0000 C   0  0  0  0  0  0  0  0  0  0  0  0
    1.4289   -0.1510    0.0000 C   0  0  0  0  0  0  0  0  0  0  0  0
    0.7145   -0.5635    0.0000 C   0  0  0  0  0  0  0  0  0  0  0  0
    1.4289   -2.6260    0.0000 O   0  0  0  0  0  0  0  0  0  0  0  0
    2.1434   -3.0385    0.0000 C   0  0  0  0  0  0  0  0  0  0  0  0
    2.8579   -0.1510    0.0000 C   0  0  0  0  0  0  0  0  0  0  0  0
    2.8579    0.6740    0.0000 C   0  0  0  0  0  0  0  0  0  0  0  0
    2.1434    1.0865    0.0000 N   0  0  0  0  0  0  0  0  0  0  0  0
    1.4289    0.6740    0.0000 C   0  0  0  0  0  0  0  0  0  0  0  0
    3.5724   -0.5635    0.0000 C   0  0  0  0  0  0  0  0  0  0  0  0
    3.5724    0.2615    0.0000 C   0  0  0  0  0  0  0  0  0  0  0  0
    2.1434    1.9115    0.0000 C   0  0  0  0  0  0  0  0  0  0  0  0
    2.8579    2.3240    0.0000 C   0  0  0  0  0  0  0  0  0  0  0  0
  1  2  4  0  0  0  0
  2  3  4  0  0  0  0
  3  4  4  0  0  0  0
  4  5  4  0  0  0  0
  5  6  4  0  0  0  0
  6  1  4  0  0  0  0
  4  7  1  0  0  0  0
  8  9  1  0  0  0  0
  9 10  1  0  0  0  0
 10  5  1  0  0  0  0
  7 11  1  0  0  0  0
  9 12  1  0  0  0  0
 10 13  2  0  0  0  0
 10 14  2  0  0  0  0
 11 15  4  0  0  0  0
 15 16  4  0  0  0  0
 16 17  4  0  0  0  0
 17 18  4  0  0  0  0
 18 19  4  0  0  0  0
 19 11  4  0  0  0  0
 15 20  1  0  0  0  0
 18 21  1  0  0  0  0
 21 22  1  0  0  0  0
 22 23  4  0  0  0  0
 23 24  4  0  0  0  0
 24 25  4  0  0  0  0
 25 26  4  0  0  0  0
 26 27  4  0  0  0  0
 27 22  4  0  0  0  0
 23 28  1  0  0  0  0
 28 29  1  0  0  0  0
 25 30  1  0  0  0  0
 30 31  1  0  0  0  0
 31 32  1  0  0  0  0
 32 33  1  0  0  0  0
 33 26  1  0  0  0  0
 30 34  1  0  0  0  0
 30 35  1  0  0  0  0
 32 36  1  0  0  0  0
 36 37  1  0  0  0  0
M  END
> <From>
www.bindingDB.org

> <BindingDB Reactant_set_id>
490542

> <Ligand InChI>
InChI=1S/C27H34ClN5O3S/c1-7-33-15-18-12-22(23(36-6)13-19(18)27(4,5)16-33)31-26-29-14-20(28)25(32-26)30-21-10-8-9-11-24(21)37(34,35)17(2)3/h8-14,17H,7,15-16H2,1-6H3,(H2,29,30,31,32)

> <Ligand InChI Key>
IHDNVTSTSSSUJW-UHFFFAOYSA-N

> <BindingDB MonomerID>
244034

> <BindingDB Ligand Name>
5-chloro-N4-(2-(isopropylsulfonyl)phenyl)-N2-(2-ethyl-6-methoxy-4,4-trimethyl-1,2,3,4-tetrahydroisoquinolin-7-yl)pyrimidine-2,4-diamine::US10053458, 92

> <Target Name Assigned by Curator or DataSource>
ALK tyrosine kinase receptor

> <Target Source Organism According to Curator or DataSource>
Homo sapiens

> <Ki (nM)>


> <IC50 (nM)>
<10.00

> <Kd (nM)>


> <EC50 (nM)>


> <kon (M-1-s-1)>


> <koff (s-1)>


> <pH>


> <Temp C>
25.00

> <Curation/DataSource>
US Patent

> <Article DOI>


> <PMID>


> <PubChem AID>


> <Patent Number>
US10053458

> <Authors>
Yun, CS; Kim, HR; Cho, SY; Jung, HJ; Lee, K; Chae, CH; Lee, CO; Park, CH; Kim, P; Hwang, JY; Ha, JD; Ahn, SJ

> <Institution>
KOREA RESEARCH INSTITUTE OF CHEMICAL TECHNOLOGY

> <Link to Ligand in BindingDB>
http://www.bindingdb.org/bind/chemsearch/marvin/MolStructure.jsp?monomerid=244034

> <Link to Ligand-Target Pair in BindingDB>
http://www.bindingdb.org/jsp/dbsearch/PrimarySearch_ki.jsp?energyterm=kJ/mole&tag=pol&polymerid=5809&target=ALK+tyrosine+kinase+receptor&column=ki&startPg=0&Increment=50&submit=Search

> <Link to Ligand-Target Pair in BindingDB>
http://www.bindingdb.org/jsp/dbsearch/PrimarySearch_ki.jsp?energyterm=kJ/mole&tag=r21&monomerid=244034&enzyme=ALK+tyrosine+kinase+receptor&column=ki&startPg=0&Increment=50&submit=Search

> <Ligand HET ID in PDB>


> <PDB ID(s) for Ligand-Target Complex>


> <PubChem CID>
129147996

> <PubChem SID>
376221865

> <ChEBI ID of Ligand>


> <ChEMBL ID of Ligand>


> <DrugBank ID of Ligand>


> <IUPHAR_GRAC ID of Ligand>


> <KEGG ID of Ligand>


> <ZINC ID of Ligand>


> <Number of Protein Chains in Target (>1 implies a multichain complex)>
1

> <BindingDB Target Chain Sequence>
MGAIGLLWLLPLLLSTAAVGSGMGTGQRAGSPAAGPPLQPREPLSYSRLQRKSLAVDFVVPSLFRVYARDLLLPPSSSELKAGRPEARGSLALDCAPLLRLLGPAPGVSWTAGSPAPAEARTLSRVLKGGSVRKLRRAKQLVLELGEEAILEGCVGPPGEAAVGLLQFNLSELFSWWIRQGEGRLRIRLMPEKKASEVGREGRLSAAIRASQPRLLFQIFGTGHSSLESPTNMPSPSPDYFTWNLTWIMKDSFPFLSHRSRYGLECSFDFPCELEYSPPLHDLRNQSWSWRRIPSEEASQMDLLDGPGAERSKEMPRGSFLLLNTSADSKHTILSPWMRSSSEHCTLAVSVHRHLQPSGRYIAQLLPHNEAAREILLMPTPGKHGWTVLQGRIGRPDNPFRVALEYISSGNRSLSAVDFFALKNCSEGTSPGSKMALQSSFTCWNGTVLQLGQACDFHQDCAQGEDESQMCRKLPVGFYCNFEDGFCGWTQGTLSPHTPQWQVRTLKDARFQDHQDHALLLSTTDVPASESATVTSATFPAPIKSSPCELRMSWLIRGVLRGNVSLVLVENKTGKEQGRMVWHVAAYEGLSLWQWMVLPLLDVSDRFWLQMVAWWGQGSRAIVAFDNISISLDCYLTISGEDKILQNTAPKSRNLFERNPNKELKPGENSPRQTPIFDPTVHWLFTTCGASGPHGPTQAQCNNAYQNSNLSVEVGSEGPLKGIQIWKVPATDTYSISGYGAAGGKGGKNTMMRSHGVSVLGIFNLEKDDMLYILVGQQGEDACPSTNQLIQKVCIGENNVIEEEIRVNRSVHEWAGGGGGGGGATYVFKMKDGVPVPLIIAAGGGGRAYGAKTDTFHPERLENNSSVLGLNGNSGAAGGGGGWNDNTSLLWAGKSLQEGATGGHSCPQAMKKWGWETRGGFGGGGGGCSSGGGGGGYIGGNAASNNDPEMDGEDGVSFISPLGILYTPALKVMEGHGEVNIKHYLNCSHCEVDECHMDPESHKVICFCDHGTVLAEDGVSCIVSPTPEPHLPLSLILSVVTSALVAALVLAFSGIMIVYRRKHQELQAMQMELQSPEYKLSKLRTSTIMTDYNPNYCFAGKTSSISDLKEVPRKNITLIRGLGHGAFGEVYEGQVSGMPNDPSPLQVAVKTLPEVCSEQDELDFLMEALIISKFNHQNIVRCIGVSLQSLPRFILLELMAGGDLKSFLRETRPRPSQPSSLAMLDLLHVARDIACGCQYLEENHFIHRDIAARNCLLTCPGPGRVAKIGDFGMARDIYRASYYRKGGCAMLPVKWMPPEAFMEGIFTSKTDTWSFGVLLWEIFSLGYMPYPSKSNQEVLEFVTSGGRMDPPKNCPGPVYRIMTQCWQHQPEDRPNFAIILERIEYCTQDPDVINTALPIEYGPLVEEEEKVPVRPKDPEGVPPLLVSQQAKREEERSPAAPPPLPTTSSGKAAKKPTAAEISVRVPRGPAVEGGHVNMAFSQSNPPSELHKVHGSRNKPTSLWNPTYGSWFTEKPTKKNNPIAKKEPHDRGNLGLEGSCTVPPNVATGRLPGASLLLEPSSLTANMKEVPLFRLRHFPCGNVNYGYQQQGLPLEAATAPGAGHYEDTILKSKNSMNQPGP

> <PDB ID(s) of Target Chain>
2XB7,2XBA,3AOX,5FTO,5FTQ,6E0R,6EBW,6EDL,6MX8

> <UniProt (SwissProt) Recommended Name of Target Chain>
ALK tyrosine kinase receptor

> <UniProt (SwissProt) Entry Name of Target Chain>
ALK_HUMAN

> <UniProt (SwissProt) Primary ID of Target Chain>
Q9UM73

> <UniProt (SwissProt) Secondary ID(s) of Target Chain>
Q4ZFX9,Q53QQ6,Q53RZ4,Q59FI3,Q9Y4K6

> <UniProt (SwissProt) Alternative ID(s) of Target Chain>


> <UniProt (TrEMBL) Submitted Name of Target Chain>


> <UniProt (TrEMBL) Entry Name of Target Chain>


> <UniProt (TrEMBL) Primary ID of Target Chain>


> <UniProt (TrEMBL) Secondary ID(s) of Target Chain>


> <UniProt (TrEMBL) Alternative ID(s) of Target Chain>


$$$$
00266001.cdx
  Mrv0541 10181809492D          

 39 42  0  0  0  0            999 V2000
   -3.5724    2.2687    0.0000 C   0  0  0  0  0  0  0  0  0  0  0  0
   -3.5724    1.4437    0.0000 C   0  0  0  0  0  0  0  0  0  0  0  0
   -2.8579    1.0312    0.0000 C   0  0  0  0  0  0  0  0  0  0  0  0
   -2.1434    1.4437    0.0000 C   0  0  0  0  0  0  0  0  0  0  0  0
   -2.1434    2.2687    0.0000 C   0  0  0  0  0  0  0  0  0  0  0  0
   -2.8579    2.6812    0.0000 C   0  0  0  0  0  0  0  0  0  0  0  0
   -1.4289    1.0312    0.0000 N   0  0  0  0  0  0  0  0  0  0  0  0
   -0.7145    1.4437    0.0000 C   0  0  0  0  0  0  0  0  0  0  0  0
   -0.7145    2.2687    0.0000 C   0  0  0  0  0  0  0  0  0  0  0  0
   -1.4289    2.6812    0.0000 S   0  0  0  0  0  0  0  0  0  0  0  0
   -1.4289    0.2062    0.0000 C   0  0  0  0  0  0  0  0  0  0  0  0
    0.0000    2.6812    0.0000 C   0  0  0  0  0  0  0  0  0  0  0  0
   -1.0164    3.3957    0.0000 O   0  0  0  0  0  0  0  0  0  0  0  0
   -2.0123    3.2646    0.0000 O   0  0  0  0  0  0  0  0  0  0  0  0
   -2.1434   -0.2063    0.0000 C   0  0  0  0  0  0  0  0  0  0  0  0
   -2.1434   -1.0313    0.0000 C   0  0  0  0  0  0  0  0  0  0  0  0
   -1.4289   -1.4438    0.0000 N   0  0  0  0  0  0  0  0  0  0  0  0
   -0.7145   -1.0313    0.0000 C   0  0  0  0  0  0  0  0  0  0  0  0
   -0.7145   -0.2063    0.0000 N   0  0  0  0  0  0  0  0  0  0  0  0
   -2.8579    0.2062    0.0000 Cl  0  0  0  0  0  0  0  0  0  0  0  0
    0.0000   -1.4438    0.0000 N   0  0  0  0  0  0  0  0  0  0  0  0
    0.7145   -1.0313    0.0000 C   0  0  0  0  0  0  0  0  0  0  0  0
    1.4289   -1.4438    0.0000 C   0  0  0  0  0  0  0  0  0  0  0  0
    2.1434   -1.0313    0.0000 C   0  0  0  0  0  0  0  0  0  0  0  0
    2.1434   -0.2063    0.0000 C   0  0  0  0  0  0  0  0  0  0  0  0
    1.4289    0.2062    0.0000 C   0  0  0  0  0  0  0  0  0  0  0  0
    0.7145   -0.2063    0.0000 C   0  0  0  0  0  0  0  0  0  0  0  0
    1.4289   -2.2688    0.0000 O   0  0  0  0  0  0  0  0  0  0  0  0
    2.1434   -2.6813    0.0000 C   0  0  0  0  0  0  0  0  0  0  0  0
    2.8579    0.2062    0.0000 C   0  0  0  0  0  0  0  0  0  0  0  0
    2.8579    1.0313    0.0000 C   0  0  0  0  0  0  0  0  0  0  0  0
    2.1434    1.4438    0.0000 N   0  0  0  0  0  0  0  0  0  0  0  0
    1.4289    1.0313    0.0000 C   0  0  0  0  0  0  0  0  0  0  0  0
    3.5724   -0.2063    0.0000 C   0  0  0  0  0  0  0  0  0  0  0  0
    3.5724    0.6187    0.0000 C   0  0  0  0  0  0  0  0  0  0  0  0
    2.1434    2.2688    0.0000 C   0  0  0  0  0  0  0  0  0  0  0  0
    2.8579    2.6813    0.0000 C   0  0  0  0  0  0  0  0  0  0  0  0
    2.8579    3.5063    0.0000 O   0  0  0  0  0  0  0  0  0  0  0  0
    2.1434   -3.5063    0.0000 C   0  0  0  0  0  0  0  0  0  0  0  0
  1  2  4  0  0  0  0
  2  3  4  0  0  0  0
  3  4  4  0  0  0  0
  4  5  4  0  0  0  0
  5  6  4  0  0  0  0
  6  1  4  0  0  0  0
  4  7  1  0  0  0  0
  8  9  1  0  0  0  0
  9 10  1  0  0  0  0
 10  5  1  0  0  0  0
  7 11  1  0  0  0  0
  9 12  1  0  0  0  0
 10 13  2  0  0  0  0
 10 14  2  0  0  0  0
 11 15  4  0  0  0  0
 15 16  4  0  0  0  0
 16 17  4  0  0  0  0
 17 18  4  0  0  0  0
 18 19  4  0  0  0  0
 19 11  4  0  0  0  0
 15 20  1  0  0  0  0
 18 21  1  0  0  0  0
 21 22  1  0  0  0  0
 22 23  4  0  0  0  0
 23 24  4  0  0  0  0
 24 25  4  0  0  0  0
 25 26  4  0  0  0  0
 26 27  4  0  0  0  0
 27 22  4  0  0  0  0
 23 28  1  0  0  0  0
 28 29  1  0  0  0  0
 25 30  1  0  0  0  0
 30 31  1  0  0  0  0
 31 32  1  0  0  0  0
 32 33  1  0  0  0  0
 33 26  1  0  0  0  0
 30 34  1  0  0  0  0
 30 35  1  0  0  0  0
 32 36  1  0  0  0  0
 36 37  1  0  0  0  0
 37 38  1  0  0  0  0
 29 39  1  0  0  0  0
M  END
> <From>
www.bindingDB.org

> <BindingDB Reactant_set_id>
490544

> <Ligand InChI>
InChI=1S/C28H36ClN5O4S/c1-6-38-24-14-20-19(16-34(11-12-35)17-28(20,4)5)13-23(24)32-27-30-15-21(29)26(33-27)31-22-9-7-8-10-25(22)39(36,37)18(2)3/h7-10,13-15,18,35H,6,11-12,16-17H2,1-5H3,(H2,30,31,32,33)

> <Ligand InChI Key>
RKUWWUHOGSGQII-UHFFFAOYSA-N

> <BindingDB MonomerID>
244035

> <BindingDB Ligand Name>
2-(7-((5-chloro-4-((2-(isopropylsulfonyl)phenylamino)pyrimidin-2-yl)amino)-6-methoxy-4,4-dimethyl-3,4-dihydroisoquinolin-2(1H)-yl)ethane-1-ol::US10053458, 93

> <Target Name Assigned by Curator or DataSource>
ALK tyrosine kinase receptor

> <Target Source Organism According to Curator or DataSource>
Homo sapiens

> <Ki (nM)>


> <IC50 (nM)>
<10.00

> <Kd (nM)>


> <EC50 (nM)>


> <kon (M-1-s-1)>


> <koff (s-1)>


> <pH>


> <Temp C>
25.00

> <Curation/DataSource>
US Patent

> <Article DOI>


> <PMID>


> <PubChem AID>


> <Patent Number>
US10053458

> <Authors>
Yun, CS; Kim, HR; Cho, SY; Jung, HJ; Lee, K; Chae, CH; Lee, CO; Park, CH; Kim, P; Hwang, JY; Ha, JD; Ahn, SJ

> <Institution>
KOREA RESEARCH INSTITUTE OF CHEMICAL TECHNOLOGY

> <Link to Ligand in BindingDB>
http://www.bindingdb.org/bind/chemsearch/marvin/MolStructure.jsp?monomerid=244035

> <Link to Ligand-Target Pair in BindingDB>
http://www.bindingdb.org/jsp/dbsearch/PrimarySearch_ki.jsp?energyterm=kJ/mole&tag=pol&polymerid=5809&target=ALK+tyrosine+kinase+receptor&column=ki&startPg=0&Increment=50&submit=Search

> <Link to Ligand-Target Pair in BindingDB>
http://www.bindingdb.org/jsp/dbsearch/PrimarySearch_ki.jsp?energyterm=kJ/mole&tag=r21&monomerid=244035&enzyme=ALK+tyrosine+kinase+receptor&column=ki&startPg=0&Increment=50&submit=Search

> <Ligand HET ID in PDB>


> <PDB ID(s) for Ligand-Target Complex>


> <PubChem CID>
129147997

> <PubChem SID>
376221866

> <ChEBI ID of Ligand>


> <ChEMBL ID of Ligand>


> <DrugBank ID of Ligand>


> <IUPHAR_GRAC ID of Ligand>


> <KEGG ID of Ligand>


> <ZINC ID of Ligand>


> <Number of Protein Chains in Target (>1 implies a multichain complex)>
1

> <BindingDB Target Chain Sequence>
MGAIGLLWLLPLLLSTAAVGSGMGTGQRAGSPAAGPPLQPREPLSYSRLQRKSLAVDFVVPSLFRVYARDLLLPPSSSELKAGRPEARGSLALDCAPLLRLLGPAPGVSWTAGSPAPAEARTLSRVLKGGSVRKLRRAKQLVLELGEEAILEGCVGPPGEAAVGLLQFNLSELFSWWIRQGEGRLRIRLMPEKKASEVGREGRLSAAIRASQPRLLFQIFGTGHSSLESPTNMPSPSPDYFTWNLTWIMKDSFPFLSHRSRYGLECSFDFPCELEYSPPLHDLRNQSWSWRRIPSEEASQMDLLDGPGAERSKEMPRGSFLLLNTSADSKHTILSPWMRSSSEHCTLAVSVHRHLQPSGRYIAQLLPHNEAAREILLMPTPGKHGWTVLQGRIGRPDNPFRVALEYISSGNRSLSAVDFFALKNCSEGTSPGSKMALQSSFTCWNGTVLQLGQACDFHQDCAQGEDESQMCRKLPVGFYCNFEDGFCGWTQGTLSPHTPQWQVRTLKDARFQDHQDHALLLSTTDVPASESATVTSATFPAPIKSSPCELRMSWLIRGVLRGNVSLVLVENKTGKEQGRMVWHVAAYEGLSLWQWMVLPLLDVSDRFWLQMVAWWGQGSRAIVAFDNISISLDCYLTISGEDKILQNTAPKSRNLFERNPNKELKPGENSPRQTPIFDPTVHWLFTTCGASGPHGPTQAQCNNAYQNSNLSVEVGSEGPLKGIQIWKVPATDTYSISGYGAAGGKGGKNTMMRSHGVSVLGIFNLEKDDMLYILVGQQGEDACPSTNQLIQKVCIGENNVIEEEIRVNRSVHEWAGGGGGGGGATYVFKMKDGVPVPLIIAAGGGGRAYGAKTDTFHPERLENNSSVLGLNGNSGAAGGGGGWNDNTSLLWAGKSLQEGATGGHSCPQAMKKWGWETRGGFGGGGGGCSSGGGGGGYIGGNAASNNDPEMDGEDGVSFISPLGILYTPALKVMEGHGEVNIKHYLNCSHCEVDECHMDPESHKVICFCDHGTVLAEDGVSCIVSPTPEPHLPLSLILSVVTSALVAALVLAFSGIMIVYRRKHQELQAMQMELQSPEYKLSKLRTSTIMTDYNPNYCFAGKTSSISDLKEVPRKNITLIRGLGHGAFGEVYEGQVSGMPNDPSPLQVAVKTLPEVCSEQDELDFLMEALIISKFNHQNIVRCIGVSLQSLPRFILLELMAGGDLKSFLRETRPRPSQPSSLAMLDLLHVARDIACGCQYLEENHFIHRDIAARNCLLTCPGPGRVAKIGDFGMARDIYRASYYRKGGCAMLPVKWMPPEAFMEGIFTSKTDTWSFGVLLWEIFSLGYMPYPSKSNQEVLEFVTSGGRMDPPKNCPGPVYRIMTQCWQHQPEDRPNFAIILERIEYCTQDPDVINTALPIEYGPLVEEEEKVPVRPKDPEGVPPLLVSQQAKREEERSPAAPPPLPTTSSGKAAKKPTAAEISVRVPRGPAVEGGHVNMAFSQSNPPSELHKVHGSRNKPTSLWNPTYGSWFTEKPTKKNNPIAKKEPHDRGNLGLEGSCTVPPNVATGRLPGASLLLEPSSLTANMKEVPLFRLRHFPCGNVNYGYQQQGLPLEAATAPGAGHYEDTILKSKNSMNQPGP

> <PDB ID(s) of Target Chain>
2XB7,2XBA,3AOX,5FTO,5FTQ,6E0R,6EBW,6EDL,6MX8

> <UniProt (SwissProt) Recommended Name of Target Chain>
ALK tyrosine kinase receptor

> <UniProt (SwissProt) Entry Name of Target Chain>
ALK_HUMAN

> <UniProt (SwissProt) Primary ID of Target Chain>
Q9UM73

> <UniProt (SwissProt) Secondary ID(s) of Target Chain>
Q4ZFX9,Q53QQ6,Q53RZ4,Q59FI3,Q9Y4K6

> <UniProt (SwissProt) Alternative ID(s) of Target Chain>


> <UniProt (TrEMBL) Submitted Name of Target Chain>


> <UniProt (TrEMBL) Entry Name of Target Chain>


> <UniProt (TrEMBL) Primary ID of Target Chain>


> <UniProt (TrEMBL) Secondary ID(s) of Target Chain>


> <UniProt (TrEMBL) Alternative ID(s) of Target Chain>


$$$$
00271001.cdx
  Mrv0541 10181809492D          

 41 44  0  0  0  0            999 V2000
   -3.5724    1.6500    0.0000 C   0  0  0  0  0  0  0  0  0  0  0  0
   -3.5724    0.8250    0.0000 C   0  0  0  0  0  0  0  0  0  0  0  0
   -2.8579    0.4125    0.0000 C   0  0  0  0  0  0  0  0  0  0  0  0
   -2.1434    0.8250    0.0000 C   0  0  0  0  0  0  0  0  0  0  0  0
   -2.1434    1.6500    0.0000 C   0  0  0  0  0  0  0  0  0  0  0  0
   -2.8579    2.0625    0.0000 C   0  0  0  0  0  0  0  0  0  0  0  0
   -1.4289    0.4125    0.0000 N   0  0  0  0  0  0  0  0  0  0  0  0
   -0.7145    0.8250    0.0000 C   0  0  0  0  0  0  0  0  0  0  0  0
   -0.7145    1.6500    0.0000 C   0  0  0  0  0  0  0  0  0  0  0  0
   -1.4289    2.0625    0.0000 S   0  0  0  0  0  0  0  0  0  0  0  0
   -1.4289   -0.4125    0.0000 C   0  0  0  0  0  0  0  0  0  0  0  0
    0.0000    2.0625    0.0000 C   0  0  0  0  0  0  0  0  0  0  0  0
   -1.0164    2.7770    0.0000 O   0  0  0  0  0  0  0  0  0  0  0  0
   -2.0123    2.6459    0.0000 O   0  0  0  0  0  0  0  0  0  0  0  0
   -2.1434   -0.8250    0.0000 C   0  0  0  0  0  0  0  0  0  0  0  0
   -2.1434   -1.6500    0.0000 C   0  0  0  0  0  0  0  0  0  0  0  0
   -1.4289   -2.0625    0.0000 N   0  0  0  0  0  0  0  0  0  0  0  0
   -0.7145   -1.6500    0.0000 C   0  0  0  0  0  0  0  0  0  0  0  0
   -0.7145   -0.8250    0.0000 N   0  0  0  0  0  0  0  0  0  0  0  0
   -2.8579   -0.4125    0.0000 Cl  0  0  0  0  0  0  0  0  0  0  0  0
    0.0000   -2.0625    0.0000 N   0  0  0  0  0  0  0  0  0  0  0  0
    0.7145   -1.6500    0.0000 C   0  0  0  0  0  0  0  0  0  0  0  0
    1.4289   -2.0625    0.0000 C   0  0  0  0  0  0  0  0  0  0  0  0
    2.1434   -1.6500    0.0000 C   0  0  0  0  0  0  0  0  0  0  0  0
    2.1434   -0.8250    0.0000 C   0  0  0  0  0  0  0  0  0  0  0  0
    1.4289   -0.4125    0.0000 C   0  0  0  0  0  0  0  0  0  0  0  0
    0.7145   -0.8250    0.0000 C   0  0  0  0  0  0  0  0  0  0  0  0
    1.4289   -2.8875    0.0000 O   0  0  0  0  0  0  0  0  0  0  0  0
    2.1434   -3.3000    0.0000 C   0  0  0  0  0  0  0  0  0  0  0  0
    2.8579   -0.4125    0.0000 C   0  0  0  0  0  0  0  0  0  0  0  0
    2.8579    0.4125    0.0000 C   0  0  0  0  0  0  0  0  0  0  0  0
    2.1434    0.8250    0.0000 N   0  0  0  0  0  0  0  0  0  0  0  0
    1.4289    0.4125    0.0000 C   0  0  0  0  0  0  0  0  0  0  0  0
    3.5724   -0.8250    0.0000 C   0  0  0  0  0  0  0  0  0  0  0  0
    3.5724    0.0000    0.0000 C   0  0  0  0  0  0  0  0  0  0  0  0
    2.1434    1.6500    0.0000 C   0  0  0  0  0  0  0  0  0  0  0  0
    2.8579    2.0625    0.0000 C   0  0  0  0  0  0  0  0  0  0  0  0
    2.8579    2.8875    0.0000 N   0  0  0  0  0  0  0  0  0  0  0  0
    3.5724    3.3000    0.0000 C   0  0  0  0  0  0  0  0  0  0  0  0
    2.1434    3.3000    0.0000 C   0  0  0  0  0  0  0  0  0  0  0  0
    1.4289    2.0625    0.0000 O   0  0  0  0  0  0  0  0  0  0  0  0
  1  2  4  0  0  0  0
  2  3  4  0  0  0  0
  3  4  4  0  0  0  0
  4  5  4  0  0  0  0
  5  6  4  0  0  0  0
  6  1  4  0  0  0  0
  4  7  1  0  0  0  0
  8  9  1  0  0  0  0
  9 10  1  0  0  0  0
 10  5  1  0  0  0  0
  7 11  1  0  0  0  0
  9 12  1  0  0  0  0
 10 13  2  0  0  0  0
 10 14  2  0  0  0  0
 11 15  4  0  0  0  0
 15 16  4  0  0  0  0
 16 17  4  0  0  0  0
 17 18  4  0  0  0  0
 18 19  4  0  0  0  0
 19 11  4  0  0  0  0
 15 20  1  0  0  0  0
 18 21  1  0  0  0  0
 21 22  1  0  0  0  0
 22 23  4  0  0  0  0
 23 24  4  0  0  0  0
 24 25  4  0  0  0  0
 25 26  4  0  0  0  0
 26 27  4  0  0  0  0
 27 22  4  0  0  0  0
 23 28  1  0  0  0  0
 28 29  1  0  0  0  0
 25 30  1  0  0  0  0
 30 31  1  0  0  0  0
 31 32  1  0  0  0  0
 32 33  1  0  0  0  0
 33 26  1  0  0  0  0
 30 34  1  0  0  0  0
 30 35  1  0  0  0  0
 32 36  1  0  0  0  0
 36 37  1  0  0  0  0
 37 38  1  0  0  0  0
 38 39  1  0  0  0  0
 38 40  1  0  0  0  0
 36 41  2  0  0  0  0
M  END
> <From>
www.bindingDB.org

> <BindingDB Reactant_set_id>
490546

> <Ligand InChI>
InChI=1S/C29H37ClN6O4S/c1-18(2)41(38,39)25-11-9-8-10-22(25)32-27-21(30)14-31-28(34-27)33-23-12-19-15-36(26(37)16-35(5)6)17-29(3,4)20(19)13-24(23)40-7/h8-14,18H,15-17H2,1-7H3,(H2,31,32,33,34)

> <Ligand InChI Key>
HYPBQTKMRRIJNE-UHFFFAOYSA-N

> <BindingDB MonomerID>
244036

> <BindingDB Ligand Name>
1-(7-((5-chloro-4-((2-(isopropylsulfonyl)phenylamino)pyrimidin-2-yl)amino)-6-methoxy-4,4-dimethyl-3,4-dihydroisoquinolin-2(1H)-yl)-2-(dimethylamino)ethane-1-one::US10053458, 94

> <Target Name Assigned by Curator or DataSource>
ALK tyrosine kinase receptor

> <Target Source Organism According to Curator or DataSource>
Homo sapiens

> <Ki (nM)>


> <IC50 (nM)>
<10.00

> <Kd (nM)>


> <EC50 (nM)>


> <kon (M-1-s-1)>


> <koff (s-1)>


> <pH>


> <Temp C>
25.00

> <Curation/DataSource>
US Patent

> <Article DOI>


> <PMID>


> <PubChem AID>


> <Patent Number>
US10053458

> <Authors>
Yun, CS; Kim, HR; Cho, SY; Jung, HJ; Lee, K; Chae, CH; Lee, CO; Park, CH; Kim, P; Hwang, JY; Ha, JD; Ahn, SJ

> <Institution>
KOREA RESEARCH INSTITUTE OF CHEMICAL TECHNOLOGY

> <Link to Ligand in BindingDB>
http://www.bindingdb.org/bind/chemsearch/marvin/MolStructure.jsp?monomerid=244036

> <Link to Ligand-Target Pair in BindingDB>
http://www.bindingdb.org/jsp/dbsearch/PrimarySearch_ki.jsp?energyterm=kJ/mole&tag=pol&polymerid=5809&target=ALK+tyrosine+kinase+receptor&column=ki&startPg=0&Increment=50&submit=Search

> <Link to Ligand-Target Pair in BindingDB>
http://www.bindingdb.org/jsp/dbsearch/PrimarySearch_ki.jsp?energyterm=kJ/mole&tag=r21&monomerid=244036&enzyme=ALK+tyrosine+kinase+receptor&column=ki&startPg=0&Increment=50&submit=Search

> <Ligand HET ID in PDB>


> <PDB ID(s) for Ligand-Target Complex>


> <PubChem CID>
129147998

> <PubChem SID>
376221867

> <ChEBI ID of Ligand>


> <ChEMBL ID of Ligand>


> <DrugBank ID of Ligand>


> <IUPHAR_GRAC ID of Ligand>


> <KEGG ID of Ligand>


> <ZINC ID of Ligand>


> <Number of Protein Chains in Target (>1 implies a multichain complex)>
1

> <BindingDB Target Chain Sequence>
MGAIGLLWLLPLLLSTAAVGSGMGTGQRAGSPAAGPPLQPREPLSYSRLQRKSLAVDFVVPSLFRVYARDLLLPPSSSELKAGRPEARGSLALDCAPLLRLLGPAPGVSWTAGSPAPAEARTLSRVLKGGSVRKLRRAKQLVLELGEEAILEGCVGPPGEAAVGLLQFNLSELFSWWIRQGEGRLRIRLMPEKKASEVGREGRLSAAIRASQPRLLFQIFGTGHSSLESPTNMPSPSPDYFTWNLTWIMKDSFPFLSHRSRYGLECSFDFPCELEYSPPLHDLRNQSWSWRRIPSEEASQMDLLDGPGAERSKEMPRGSFLLLNTSADSKHTILSPWMRSSSEHCTLAVSVHRHLQPSGRYIAQLLPHNEAAREILLMPTPGKHGWTVLQGRIGRPDNPFRVALEYISSGNRSLSAVDFFALKNCSEGTSPGSKMALQSSFTCWNGTVLQLGQACDFHQDCAQGEDESQMCRKLPVGFYCNFEDGFCGWTQGTLSPHTPQWQVRTLKDARFQDHQDHALLLSTTDVPASESATVTSATFPAPIKSSPCELRMSWLIRGVLRGNVSLVLVENKTGKEQGRMVWHVAAYEGLSLWQWMVLPLLDVSDRFWLQMVAWWGQGSRAIVAFDNISISLDCYLTISGEDKILQNTAPKSRNLFERNPNKELKPGENSPRQTPIFDPTVHWLFTTCGASGPHGPTQAQCNNAYQNSNLSVEVGSEGPLKGIQIWKVPATDTYSISGYGAAGGKGGKNTMMRSHGVSVLGIFNLEKDDMLYILVGQQGEDACPSTNQLIQKVCIGENNVIEEEIRVNRSVHEWAGGGGGGGGATYVFKMKDGVPVPLIIAAGGGGRAYGAKTDTFHPERLENNSSVLGLNGNSGAAGGGGGWNDNTSLLWAGKSLQEGATGGHSCPQAMKKWGWETRGGFGGGGGGCSSGGGGGGYIGGNAASNNDPEMDGEDGVSFISPLGILYTPALKVMEGHGEVNIKHYLNCSHCEVDECHMDPESHKVICFCDHGTVLAEDGVSCIVSPTPEPHLPLSLILSVVTSALVAALVLAFSGIMIVYRRKHQELQAMQMELQSPEYKLSKLRTSTIMTDYNPNYCFAGKTSSISDLKEVPRKNITLIRGLGHGAFGEVYEGQVSGMPNDPSPLQVAVKTLPEVCSEQDELDFLMEALIISKFNHQNIVRCIGVSLQSLPRFILLELMAGGDLKSFLRETRPRPSQPSSLAMLDLLHVARDIACGCQYLEENHFIHRDIAARNCLLTCPGPGRVAKIGDFGMARDIYRASYYRKGGCAMLPVKWMPPEAFMEGIFTSKTDTWSFGVLLWEIFSLGYMPYPSKSNQEVLEFVTSGGRMDPPKNCPGPVYRIMTQCWQHQPEDRPNFAIILERIEYCTQDPDVINTALPIEYGPLVEEEEKVPVRPKDPEGVPPLLVSQQAKREEERSPAAPPPLPTTSSGKAAKKPTAAEISVRVPRGPAVEGGHVNMAFSQSNPPSELHKVHGSRNKPTSLWNPTYGSWFTEKPTKKNNPIAKKEPHDRGNLGLEGSCTVPPNVATGRLPGASLLLEPSSLTANMKEVPLFRLRHFPCGNVNYGYQQQGLPLEAATAPGAGHYEDTILKSKNSMNQPGP

> <PDB ID(s) of Target Chain>
2XB7,2XBA,3AOX,5FTO,5FTQ,6E0R,6EBW,6EDL,6MX8

> <UniProt (SwissProt) Recommended Name of Target Chain>
ALK tyrosine kinase receptor

> <UniProt (SwissProt) Entry Name of Target Chain>
ALK_HUMAN

> <UniProt (SwissProt) Primary ID of Target Chain>
Q9UM73

> <UniProt (SwissProt) Secondary ID(s) of Target Chain>
Q4ZFX9,Q53QQ6,Q53RZ4,Q59FI3,Q9Y4K6

> <UniProt (SwissProt) Alternative ID(s) of Target Chain>


> <UniProt (TrEMBL) Submitted Name of Target Chain>


> <UniProt (TrEMBL) Entry Name of Target Chain>


> <UniProt (TrEMBL) Primary ID of Target Chain>


> <UniProt (TrEMBL) Secondary ID(s) of Target Chain>


> <UniProt (TrEMBL) Alternative ID(s) of Target Chain>


$$$$
00272001.cdx
  Mrv0541 10181809492D          

 39 42  0  0  0  0            999 V2000
   -3.6276    1.8562    0.0000 C   0  0  0  0  0  0  0  0  0  0  0  0
   -3.6276    1.0312    0.0000 C   0  0  0  0  0  0  0  0  0  0  0  0
   -2.9131    0.6187    0.0000 C   0  0  0  0  0  0  0  0  0  0  0  0
   -2.1987    1.0312    0.0000 C   0  0  0  0  0  0  0  0  0  0  0  0
   -2.1987    1.8562    0.0000 C   0  0  0  0  0  0  0  0  0  0  0  0
   -2.9131    2.2687    0.0000 C   0  0  0  0  0  0  0  0  0  0  0  0
   -1.4842    0.6187    0.0000 N   0  0  0  0  0  0  0  0  0  0  0  0
   -0.7697    1.0312    0.0000 C   0  0  0  0  0  0  0  0  0  0  0  0
   -0.7697    1.8562    0.0000 C   0  0  0  0  0  0  0  0  0  0  0  0
   -1.4842    2.2687    0.0000 S   0  0  0  0  0  0  0  0  0  0  0  0
   -1.4842   -0.2063    0.0000 C   0  0  0  0  0  0  0  0  0  0  0  0
   -0.0553    2.2687    0.0000 C   0  0  0  0  0  0  0  0  0  0  0  0
   -1.0717    2.9832    0.0000 O   0  0  0  0  0  0  0  0  0  0  0  0
   -2.0676    2.8521    0.0000 O   0  0  0  0  0  0  0  0  0  0  0  0
   -2.1987   -0.6188    0.0000 C   0  0  0  0  0  0  0  0  0  0  0  0
   -2.1987   -1.4438    0.0000 C   0  0  0  0  0  0  0  0  0  0  0  0
   -1.4842   -1.8563    0.0000 N   0  0  0  0  0  0  0  0  0  0  0  0
   -0.7697   -1.4438    0.0000 C   0  0  0  0  0  0  0  0  0  0  0  0
   -0.7697   -0.6188    0.0000 N   0  0  0  0  0  0  0  0  0  0  0  0
   -2.9131   -0.2063    0.0000 Cl  0  0  0  0  0  0  0  0  0  0  0  0
   -0.0553   -1.8563    0.0000 N   0  0  0  0  0  0  0  0  0  0  0  0
    0.6592   -1.4438    0.0000 C   0  0  0  0  0  0  0  0  0  0  0  0
    1.3737   -1.8563    0.0000 C   0  0  0  0  0  0  0  0  0  0  0  0
    2.0881   -1.4438    0.0000 C   0  0  0  0  0  0  0  0  0  0  0  0
    2.0881   -0.6188    0.0000 C   0  0  0  0  0  0  0  0  0  0  0  0
    1.3737   -0.2063    0.0000 C   0  0  0  0  0  0  0  0  0  0  0  0
    0.6592   -0.6188    0.0000 C   0  0  0  0  0  0  0  0  0  0  0  0
    1.3737   -2.6813    0.0000 O   0  0  0  0  0  0  0  0  0  0  0  0
    2.0881   -3.0938    0.0000 C   0  0  0  0  0  0  0  0  0  0  0  0
    2.8026   -0.2063    0.0000 C   0  0  0  0  0  0  0  0  0  0  0  0
    2.8026    0.6188    0.0000 C   0  0  0  0  0  0  0  0  0  0  0  0
    2.0881    1.0313    0.0000 N   0  0  0  0  0  0  0  0  0  0  0  0
    1.3737    0.6188    0.0000 C   0  0  0  0  0  0  0  0  0  0  0  0
    3.3860   -0.7896    0.0000 C   0  0  0  0  0  0  0  0  0  0  0  0
    3.6276   -0.2063    0.0000 C   0  0  0  0  0  0  0  0  0  0  0  0
    2.0881    1.8563    0.0000 C   0  0  0  0  0  0  0  0  0  0  0  0
    2.8026    2.2688    0.0000 C   0  0  0  0  0  0  0  0  0  0  0  0
    2.8026    3.0938    0.0000 O   0  0  0  0  0  0  0  0  0  0  0  0
    1.3737    2.2688    0.0000 O   0  0  0  0  0  0  0  0  0  0  0  0
  1  2  4  0  0  0  0
  2  3  4  0  0  0  0
  3  4  4  0  0  0  0
  4  5  4  0  0  0  0
  5  6  4  0  0  0  0
  6  1  4  0  0  0  0
  4  7  1  0  0  0  0
  8  9  1  0  0  0  0
  9 10  1  0  0  0  0
 10  5  1  0  0  0  0
  7 11  1  0  0  0  0
  9 12  1  0  0  0  0
 10 13  2  0  0  0  0
 10 14  2  0  0  0  0
 11 15  4  0  0  0  0
 15 16  4  0  0  0  0
 16 17  4  0  0  0  0
 17 18  4  0  0  0  0
 18 19  4  0  0  0  0
 19 11  4  0  0  0  0
 15 20  1  0  0  0  0
 18 21  1  0  0  0  0
 21 22  1  0  0  0  0
 22 23  4  0  0  0  0
 23 24  4  0  0  0  0
 24 25  4  0  0  0  0
 25 26  4  0  0  0  0
 26 27  4  0  0  0  0
 27 22  4  0  0  0  0
 23 28  1  0  0  0  0
 28 29  1  0  0  0  0
 25 30  1  0  0  0  0
 30 31  1  0  0  0  0
 31 32  1  0  0  0  0
 32 33  1  0  0  0  0
 33 26  1  0  0  0  0
 30 34  1  0  0  0  0
 30 35  1  0  0  0  0
 32 36  1  0  0  0  0
 36 37  1  0  0  0  0
 37 38  1  0  0  0  0
 36 39  2  0  0  0  0
M  END
> <From>
www.bindingDB.org

> <BindingDB Reactant_set_id>
490548

> <Ligand InChI>
InChI=1S/C27H32ClN5O5S/c1-16(2)39(36,37)23-9-7-6-8-20(23)30-25-19(28)12-29-26(32-25)31-21-10-17-13-33(24(35)14-34)15-27(3,4)18(17)11-22(21)38-5/h6-12,16,34H,13-15H2,1-5H3,(H2,29,30,31,32)

> <Ligand InChI Key>
PNMFXEITSCYDLN-UHFFFAOYSA-N

> <BindingDB MonomerID>
244037

> <BindingDB Ligand Name>
1-(7-((5-chloro-4-((2-(isopropylsulfonyl)phenylamino)pyrimidin-2-yl)amino)-6-methoxy-4,4-dimethyl-3,4-dihydroisoquinolin-2(1H)-yl)-2-hydroxyethane-1-one::US10053458, 95

> <Target Name Assigned by Curator or DataSource>
ALK tyrosine kinase receptor

> <Target Source Organism According to Curator or DataSource>
Homo sapiens

> <Ki (nM)>


> <IC50 (nM)>
<10.00

> <Kd (nM)>


> <EC50 (nM)>


> <kon (M-1-s-1)>


> <koff (s-1)>


> <pH>


> <Temp C>
25.00

> <Curation/DataSource>
US Patent

> <Article DOI>


> <PMID>


> <PubChem AID>


> <Patent Number>
US10053458

> <Authors>
Yun, CS; Kim, HR; Cho, SY; Jung, HJ; Lee, K; Chae, CH; Lee, CO; Park, CH; Kim, P; Hwang, JY; Ha, JD; Ahn, SJ

> <Institution>
KOREA RESEARCH INSTITUTE OF CHEMICAL TECHNOLOGY

> <Link to Ligand in BindingDB>
http://www.bindingdb.org/bind/chemsearch/marvin/MolStructure.jsp?monomerid=244037

> <Link to Ligand-Target Pair in BindingDB>
http://www.bindingdb.org/jsp/dbsearch/PrimarySearch_ki.jsp?energyterm=kJ/mole&tag=pol&polymerid=5809&target=ALK+tyrosine+kinase+receptor&column=ki&startPg=0&Increment=50&submit=Search

> <Link to Ligand-Target Pair in BindingDB>
http://www.bindingdb.org/jsp/dbsearch/PrimarySearch_ki.jsp?energyterm=kJ/mole&tag=r21&monomerid=244037&enzyme=ALK+tyrosine+kinase+receptor&column=ki&startPg=0&Increment=50&submit=Search

> <Ligand HET ID in PDB>


> <PDB ID(s) for Ligand-Target Complex>


> <PubChem CID>
129065400

> <PubChem SID>
376221868

> <ChEBI ID of Ligand>


> <ChEMBL ID of Ligand>


> <DrugBank ID of Ligand>


> <IUPHAR_GRAC ID of Ligand>


> <KEGG ID of Ligand>


> <ZINC ID of Ligand>


> <Number of Protein Chains in Target (>1 implies a multichain complex)>
1

> <BindingDB Target Chain Sequence>
MGAIGLLWLLPLLLSTAAVGSGMGTGQRAGSPAAGPPLQPREPLSYSRLQRKSLAVDFVVPSLFRVYARDLLLPPSSSELKAGRPEARGSLALDCAPLLRLLGPAPGVSWTAGSPAPAEARTLSRVLKGGSVRKLRRAKQLVLELGEEAILEGCVGPPGEAAVGLLQFNLSELFSWWIRQGEGRLRIRLMPEKKASEVGREGRLSAAIRASQPRLLFQIFGTGHSSLESPTNMPSPSPDYFTWNLTWIMKDSFPFLSHRSRYGLECSFDFPCELEYSPPLHDLRNQSWSWRRIPSEEASQMDLLDGPGAERSKEMPRGSFLLLNTSADSKHTILSPWMRSSSEHCTLAVSVHRHLQPSGRYIAQLLPHNEAAREILLMPTPGKHGWTVLQGRIGRPDNPFRVALEYISSGNRSLSAVDFFALKNCSEGTSPGSKMALQSSFTCWNGTVLQLGQACDFHQDCAQGEDESQMCRKLPVGFYCNFEDGFCGWTQGTLSPHTPQWQVRTLKDARFQDHQDHALLLSTTDVPASESATVTSATFPAPIKSSPCELRMSWLIRGVLRGNVSLVLVENKTGKEQGRMVWHVAAYEGLSLWQWMVLPLLDVSDRFWLQMVAWWGQGSRAIVAFDNISISLDCYLTISGEDKILQNTAPKSRNLFERNPNKELKPGENSPRQTPIFDPTVHWLFTTCGASGPHGPTQAQCNNAYQNSNLSVEVGSEGPLKGIQIWKVPATDTYSISGYGAAGGKGGKNTMMRSHGVSVLGIFNLEKDDMLYILVGQQGEDACPSTNQLIQKVCIGENNVIEEEIRVNRSVHEWAGGGGGGGGATYVFKMKDGVPVPLIIAAGGGGRAYGAKTDTFHPERLENNSSVLGLNGNSGAAGGGGGWNDNTSLLWAGKSLQEGATGGHSCPQAMKKWGWETRGGFGGGGGGCSSGGGGGGYIGGNAASNNDPEMDGEDGVSFISPLGILYTPALKVMEGHGEVNIKHYLNCSHCEVDECHMDPESHKVICFCDHGTVLAEDGVSCIVSPTPEPHLPLSLILSVVTSALVAALVLAFSGIMIVYRRKHQELQAMQMELQSPEYKLSKLRTSTIMTDYNPNYCFAGKTSSISDLKEVPRKNITLIRGLGHGAFGEVYEGQVSGMPNDPSPLQVAVKTLPEVCSEQDELDFLMEALIISKFNHQNIVRCIGVSLQSLPRFILLELMAGGDLKSFLRETRPRPSQPSSLAMLDLLHVARDIACGCQYLEENHFIHRDIAARNCLLTCPGPGRVAKIGDFGMARDIYRASYYRKGGCAMLPVKWMPPEAFMEGIFTSKTDTWSFGVLLWEIFSLGYMPYPSKSNQEVLEFVTSGGRMDPPKNCPGPVYRIMTQCWQHQPEDRPNFAIILERIEYCTQDPDVINTALPIEYGPLVEEEEKVPVRPKDPEGVPPLLVSQQAKREEERSPAAPPPLPTTSSGKAAKKPTAAEISVRVPRGPAVEGGHVNMAFSQSNPPSELHKVHGSRNKPTSLWNPTYGSWFTEKPTKKNNPIAKKEPHDRGNLGLEGSCTVPPNVATGRLPGASLLLEPSSLTANMKEVPLFRLRHFPCGNVNYGYQQQGLPLEAATAPGAGHYEDTILKSKNSMNQPGP

> <PDB ID(s) of Target Chain>
2XB7,2XBA,3AOX,5FTO,5FTQ,6E0R,6EBW,6EDL,6MX8

> <UniProt (SwissProt) Recommended Name of Target Chain>
ALK tyrosine kinase receptor

> <UniProt (SwissProt) Entry Name of Target Chain>
ALK_HUMAN

> <UniProt (SwissProt) Primary ID of Target Chain>
Q9UM73

> <UniProt (SwissProt) Secondary ID(s) of Target Chain>
Q4ZFX9,Q53QQ6,Q53RZ4,Q59FI3,Q9Y4K6

> <UniProt (SwissProt) Alternative ID(s) of Target Chain>


> <UniProt (TrEMBL) Submitted Name of Target Chain>


> <UniProt (TrEMBL) Entry Name of Target Chain>


> <UniProt (TrEMBL) Primary ID of Target Chain>


> <UniProt (TrEMBL) Secondary ID(s) of Target Chain>


> <UniProt (TrEMBL) Alternative ID(s) of Target Chain>


$$$$
00273001.cdx
  Mrv0541 10181809492D          

 35 39  0  0  0  0            999 V2000
   -3.6276    1.9115    0.0000 C   0  0  0  0  0  0  0  0  0  0  0  0
   -3.6276    1.0865    0.0000 C   0  0  0  0  0  0  0  0  0  0  0  0
   -2.9131    0.6740    0.0000 C   0  0  0  0  0  0  0  0  0  0  0  0
   -2.1987    1.0865    0.0000 C   0  0  0  0  0  0  0  0  0  0  0  0
   -2.1987    1.9115    0.0000 C   0  0  0  0  0  0  0  0  0  0  0  0
   -2.9131    2.3240    0.0000 C   0  0  0  0  0  0  0  0  0  0  0  0
   -1.4842    0.6740    0.0000 N   0  0  0  0  0  0  0  0  0  0  0  0
   -0.7697    1.0865    0.0000 C   0  0  0  0  0  0  0  0  0  0  0  0
   -0.7697    1.9115    0.0000 C   0  0  0  0  0  0  0  0  0  0  0  0
   -1.4842    2.3240    0.0000 S   0  0  0  0  0  0  0  0  0  0  0  0
   -1.4842   -0.1510    0.0000 C   0  0  0  0  0  0  0  0  0  0  0  0
   -0.0553    2.3240    0.0000 C   0  0  0  0  0  0  0  0  0  0  0  0
   -1.0717    3.0385    0.0000 O   0  0  0  0  0  0  0  0  0  0  0  0
   -2.0676    2.9074    0.0000 O   0  0  0  0  0  0  0  0  0  0  0  0
   -2.1987   -0.5635    0.0000 C   0  0  0  0  0  0  0  0  0  0  0  0
   -2.1987   -1.3885    0.0000 C   0  0  0  0  0  0  0  0  0  0  0  0
   -1.4842   -1.8010    0.0000 N   0  0  0  0  0  0  0  0  0  0  0  0
   -0.7697   -1.3885    0.0000 C   0  0  0  0  0  0  0  0  0  0  0  0
   -0.7697   -0.5635    0.0000 N   0  0  0  0  0  0  0  0  0  0  0  0
   -2.9131   -0.1510    0.0000 Cl  0  0  0  0  0  0  0  0  0  0  0  0
   -0.0553   -1.8010    0.0000 N   0  0  0  0  0  0  0  0  0  0  0  0
    0.6592   -1.3885    0.0000 C   0  0  0  0  0  0  0  0  0  0  0  0
    1.3737   -1.8010    0.0000 C   0  0  0  0  0  0  0  0  0  0  0  0
    2.0881   -1.3885    0.0000 C   0  0  0  0  0  0  0  0  0  0  0  0
    2.0881   -0.5635    0.0000 C   0  0  0  0  0  0  0  0  0  0  0  0
    1.3737   -0.1510    0.0000 C   0  0  0  0  0  0  0  0  0  0  0  0
    0.6592   -0.5635    0.0000 C   0  0  0  0  0  0  0  0  0  0  0  0
    1.3737   -2.6260    0.0000 O   0  0  0  0  0  0  0  0  0  0  0  0
    2.0881   -3.0385    0.0000 C   0  0  0  0  0  0  0  0  0  0  0  0
    2.8026   -0.1510    0.0000 C   0  0  0  0  0  0  0  0  0  0  0  0
    2.8026    0.6740    0.0000 C   0  0  0  0  0  0  0  0  0  0  0  0
    2.0881    1.0865    0.0000 N   0  0  0  0  0  0  0  0  0  0  0  0
    1.3737    0.6740    0.0000 C   0  0  0  0  0  0  0  0  0  0  0  0
    3.2151   -0.8655    0.0000 C   0  0  0  0  0  0  0  0  0  0  0  0
    3.6276   -0.1510    0.0000 C   0  0  0  0  0  0  0  0  0  0  0  0
  1  2  4  0  0  0  0
  2  3  4  0  0  0  0
  3  4  4  0  0  0  0
  4  5  4  0  0  0  0
  5  6  4  0  0  0  0
  6  1  4  0  0  0  0
  4  7  1  0  0  0  0
  8  9  1  0  0  0  0
  9 10  1  0  0  0  0
 10  5  1  0  0  0  0
  7 11  1  0  0  0  0
  9 12  1  0  0  0  0
 10 13  2  0  0  0  0
 10 14  2  0  0  0  0
 11 15  4  0  0  0  0
 15 16  4  0  0  0  0
 16 17  4  0  0  0  0
 17 18  4  0  0  0  0
 18 19  4  0  0  0  0
 19 11  4  0  0  0  0
 15 20  1  0  0  0  0
 18 21  1  0  0  0  0
 21 22  1  0  0  0  0
 22 23  4  0  0  0  0
 23 24  4  0  0  0  0
 24 25  4  0  0  0  0
 25 26  4  0  0  0  0
 26 27  4  0  0  0  0
 27 22  4  0  0  0  0
 23 28  1  0  0  0  0
 28 29  1  0  0  0  0
 25 30  1  0  0  0  0
 30 31  1  0  0  0  0
 31 32  1  0  0  0  0
 32 33  1  0  0  0  0
 33 26  1  0  0  0  0
 30 34  1  0  0  0  0
 34 35  1  0  0  0  0
 35 30  1  0  0  0  0
M  END
> <From>
www.bindingDB.org

> <BindingDB Reactant_set_id>
490550

> <Ligand InChI>
InChI=1S/C25H28ClN5O3S/c1-15(2)35(32,33)22-7-5-4-6-19(22)29-23-18(26)13-28-24(31-23)30-20-10-16-12-27-14-25(8-9-25)17(16)11-21(20)34-3/h4-7,10-11,13,15,27H,8-9,12,14H2,1-3H3,(H2,28,29,30,31)

> <Ligand InChI Key>
RBOKPKVOTLJRBI-UHFFFAOYSA-N

> <BindingDB MonomerID>
244038

> <BindingDB Ligand Name>
5-chloro-N4-(2-(isopropylsulfonyl)phenyl)-N2-(6-methoxy-2,3-dihydro-1H-spiro(cyclopropane-1,4-isoquinolin)-7-yl)pyrimidine-2,4-diamine::US10053458, 96

> <Target Name Assigned by Curator or DataSource>
ALK tyrosine kinase receptor

> <Target Source Organism According to Curator or DataSource>
Homo sapiens

> <Ki (nM)>


> <IC50 (nM)>
<10.00

> <Kd (nM)>


> <EC50 (nM)>


> <kon (M-1-s-1)>


> <koff (s-1)>


> <pH>


> <Temp C>
25.00

> <Curation/DataSource>
US Patent

> <Article DOI>


> <PMID>


> <PubChem AID>


> <Patent Number>
US10053458

> <Authors>
Yun, CS; Kim, HR; Cho, SY; Jung, HJ; Lee, K; Chae, CH; Lee, CO; Park, CH; Kim, P; Hwang, JY; Ha, JD; Ahn, SJ

> <Institution>
KOREA RESEARCH INSTITUTE OF CHEMICAL TECHNOLOGY

> <Link to Ligand in BindingDB>
http://www.bindingdb.org/bind/chemsearch/marvin/MolStructure.jsp?monomerid=244038

> <Link to Ligand-Target Pair in BindingDB>
http://www.bindingdb.org/jsp/dbsearch/PrimarySearch_ki.jsp?energyterm=kJ/mole&tag=pol&polymerid=5809&target=ALK+tyrosine+kinase+receptor&column=ki&startPg=0&Increment=50&submit=Search

> <Link to Ligand-Target Pair in BindingDB>
http://www.bindingdb.org/jsp/dbsearch/PrimarySearch_ki.jsp?energyterm=kJ/mole&tag=r21&monomerid=244038&enzyme=ALK+tyrosine+kinase+receptor&column=ki&startPg=0&Increment=50&submit=Search

> <Ligand HET ID in PDB>


> <PDB ID(s) for Ligand-Target Complex>


> <PubChem CID>
129148012

> <PubChem SID>
376221869

> <ChEBI ID of Ligand>


> <ChEMBL ID of Ligand>


> <DrugBank ID of Ligand>


> <IUPHAR_GRAC ID of Ligand>


> <KEGG ID of Ligand>


> <ZINC ID of Ligand>


> <Number of Protein Chains in Target (>1 implies a multichain complex)>
1

> <BindingDB Target Chain Sequence>
MGAIGLLWLLPLLLSTAAVGSGMGTGQRAGSPAAGPPLQPREPLSYSRLQRKSLAVDFVVPSLFRVYARDLLLPPSSSELKAGRPEARGSLALDCAPLLRLLGPAPGVSWTAGSPAPAEARTLSRVLKGGSVRKLRRAKQLVLELGEEAILEGCVGPPGEAAVGLLQFNLSELFSWWIRQGEGRLRIRLMPEKKASEVGREGRLSAAIRASQPRLLFQIFGTGHSSLESPTNMPSPSPDYFTWNLTWIMKDSFPFLSHRSRYGLECSFDFPCELEYSPPLHDLRNQSWSWRRIPSEEASQMDLLDGPGAERSKEMPRGSFLLLNTSADSKHTILSPWMRSSSEHCTLAVSVHRHLQPSGRYIAQLLPHNEAAREILLMPTPGKHGWTVLQGRIGRPDNPFRVALEYISSGNRSLSAVDFFALKNCSEGTSPGSKMALQSSFTCWNGTVLQLGQACDFHQDCAQGEDESQMCRKLPVGFYCNFEDGFCGWTQGTLSPHTPQWQVRTLKDARFQDHQDHALLLSTTDVPASESATVTSATFPAPIKSSPCELRMSWLIRGVLRGNVSLVLVENKTGKEQGRMVWHVAAYEGLSLWQWMVLPLLDVSDRFWLQMVAWWGQGSRAIVAFDNISISLDCYLTISGEDKILQNTAPKSRNLFERNPNKELKPGENSPRQTPIFDPTVHWLFTTCGASGPHGPTQAQCNNAYQNSNLSVEVGSEGPLKGIQIWKVPATDTYSISGYGAAGGKGGKNTMMRSHGVSVLGIFNLEKDDMLYILVGQQGEDACPSTNQLIQKVCIGENNVIEEEIRVNRSVHEWAGGGGGGGGATYVFKMKDGVPVPLIIAAGGGGRAYGAKTDTFHPERLENNSSVLGLNGNSGAAGGGGGWNDNTSLLWAGKSLQEGATGGHSCPQAMKKWGWETRGGFGGGGGGCSSGGGGGGYIGGNAASNNDPEMDGEDGVSFISPLGILYTPALKVMEGHGEVNIKHYLNCSHCEVDECHMDPESHKVICFCDHGTVLAEDGVSCIVSPTPEPHLPLSLILSVVTSALVAALVLAFSGIMIVYRRKHQELQAMQMELQSPEYKLSKLRTSTIMTDYNPNYCFAGKTSSISDLKEVPRKNITLIRGLGHGAFGEVYEGQVSGMPNDPSPLQVAVKTLPEVCSEQDELDFLMEALIISKFNHQNIVRCIGVSLQSLPRFILLELMAGGDLKSFLRETRPRPSQPSSLAMLDLLHVARDIACGCQYLEENHFIHRDIAARNCLLTCPGPGRVAKIGDFGMARDIYRASYYRKGGCAMLPVKWMPPEAFMEGIFTSKTDTWSFGVLLWEIFSLGYMPYPSKSNQEVLEFVTSGGRMDPPKNCPGPVYRIMTQCWQHQPEDRPNFAIILERIEYCTQDPDVINTALPIEYGPLVEEEEKVPVRPKDPEGVPPLLVSQQAKREEERSPAAPPPLPTTSSGKAAKKPTAAEISVRVPRGPAVEGGHVNMAFSQSNPPSELHKVHGSRNKPTSLWNPTYGSWFTEKPTKKNNPIAKKEPHDRGNLGLEGSCTVPPNVATGRLPGASLLLEPSSLTANMKEVPLFRLRHFPCGNVNYGYQQQGLPLEAATAPGAGHYEDTILKSKNSMNQPGP

> <PDB ID(s) of Target Chain>
2XB7,2XBA,3AOX,5FTO,5FTQ,6E0R,6EBW,6EDL,6MX8

> <UniProt (SwissProt) Recommended Name of Target Chain>
ALK tyrosine kinase receptor

> <UniProt (SwissProt) Entry Name of Target Chain>
ALK_HUMAN

> <UniProt (SwissProt) Primary ID of Target Chain>
Q9UM73

> <UniProt (SwissProt) Secondary ID(s) of Target Chain>
Q4ZFX9,Q53QQ6,Q53RZ4,Q59FI3,Q9Y4K6

> <UniProt (SwissProt) Alternative ID(s) of Target Chain>


> <UniProt (TrEMBL) Submitted Name of Target Chain>


> <UniProt (TrEMBL) Entry Name of Target Chain>


> <UniProt (TrEMBL) Primary ID of Target Chain>


> <UniProt (TrEMBL) Secondary ID(s) of Target Chain>


> <UniProt (TrEMBL) Alternative ID(s) of Target Chain>


$$$$
00274001.cdx
  Mrv0541 10181809492D          

 38 42  0  0  0  0            999 V2000
   -3.2151    1.9115    0.0000 C   0  0  0  0  0  0  0  0  0  0  0  0
   -3.2151    1.0865    0.0000 C   0  0  0  0  0  0  0  0  0  0  0  0
   -2.5006    0.6740    0.0000 C   0  0  0  0  0  0  0  0  0  0  0  0
   -1.7862    1.0865    0.0000 C   0  0  0  0  0  0  0  0  0  0  0  0
   -1.7862    1.9115    0.0000 C   0  0  0  0  0  0  0  0  0  0  0  0
   -2.5006    2.3240    0.0000 C   0  0  0  0  0  0  0  0  0  0  0  0
   -1.0717    0.6740    0.0000 N   0  0  0  0  0  0  0  0  0  0  0  0
   -0.3572    1.0865    0.0000 C   0  0  0  0  0  0  0  0  0  0  0  0
   -0.3572    1.9115    0.0000 C   0  0  0  0  0  0  0  0  0  0  0  0
   -1.0717    2.3240    0.0000 S   0  0  0  0  0  0  0  0  0  0  0  0
   -1.0717   -0.1510    0.0000 C   0  0  0  0  0  0  0  0  0  0  0  0
    0.3572    2.3240    0.0000 C   0  0  0  0  0  0  0  0  0  0  0  0
   -0.6592    3.0385    0.0000 O   0  0  0  0  0  0  0  0  0  0  0  0
   -1.6551    2.9074    0.0000 O   0  0  0  0  0  0  0  0  0  0  0  0
   -1.7862   -0.5635    0.0000 C   0  0  0  0  0  0  0  0  0  0  0  0
   -1.7862   -1.3885    0.0000 C   0  0  0  0  0  0  0  0  0  0  0  0
   -1.0717   -1.8010    0.0000 N   0  0  0  0  0  0  0  0  0  0  0  0
   -0.3572   -1.3885    0.0000 C   0  0  0  0  0  0  0  0  0  0  0  0
   -0.3572   -0.5635    0.0000 N   0  0  0  0  0  0  0  0  0  0  0  0
   -2.5006   -0.1510    0.0000 Cl  0  0  0  0  0  0  0  0  0  0  0  0
    0.3572   -1.8010    0.0000 N   0  0  0  0  0  0  0  0  0  0  0  0
    1.0717   -1.3885    0.0000 C   0  0  0  0  0  0  0  0  0  0  0  0
    1.7862   -1.8010    0.0000 C   0  0  0  0  0  0  0  0  0  0  0  0
    2.5006   -1.3885    0.0000 C   0  0  0  0  0  0  0  0  0  0  0  0
    2.5006   -0.5635    0.0000 C   0  0  0  0  0  0  0  0  0  0  0  0
    1.7862   -0.1510    0.0000 C   0  0  0  0  0  0  0  0  0  0  0  0
    1.0717   -0.5635    0.0000 C   0  0  0  0  0  0  0  0  0  0  0  0
    1.7862   -2.6260    0.0000 O   0  0  0  0  0  0  0  0  0  0  0  0
    2.5006   -3.0385    0.0000 C   0  0  0  0  0  0  0  0  0  0  0  0
    3.2151   -0.1510    0.0000 C   0  0  0  0  0  0  0  0  0  0  0  0
    3.2151    0.6740    0.0000 C   0  0  0  0  0  0  0  0  0  0  0  0
    2.5006    1.0865    0.0000 N   0  0  0  0  0  0  0  0  0  0  0  0
    1.7862    0.6740    0.0000 C   0  0  0  0  0  0  0  0  0  0  0  0
    2.5006    1.9115    0.0000 C   0  0  0  0  0  0  0  0  0  0  0  0
    1.7862    2.3240    0.0000 C   0  0  0  0  0  0  0  0  0  0  0  0
    1.0717    1.9115    0.0000 N   0  0  0  0  0  0  0  0  0  0  0  0
    1.0717    1.0865    0.0000 C   0  0  0  0  0  0  0  0  0  0  0  0
    3.2151    2.3240    0.0000 O   0  0  0  0  0  0  0  0  0  0  0  0
  1  2  4  0  0  0  0
  2  3  4  0  0  0  0
  3  4  4  0  0  0  0
  4  5  4  0  0  0  0
  5  6  4  0  0  0  0
  6  1  4  0  0  0  0
  4  7  1  0  0  0  0
  8  9  1  0  0  0  0
  9 10  1  0  0  0  0
 10  5  1  0  0  0  0
  7 11  1  0  0  0  0
  9 12  1  0  0  0  0
 10 13  2  0  0  0  0
 10 14  2  0  0  0  0
 11 15  4  0  0  0  0
 15 16  4  0  0  0  0
 16 17  4  0  0  0  0
 17 18  4  0  0  0  0
 18 19  4  0  0  0  0
 19 11  4  0  0  0  0
 15 20  1  0  0  0  0
 18 21  1  0  0  0  0
 21 22  1  0  0  0  0
 22 23  4  0  0  0  0
 23 24  4  0  0  0  0
 24 25  4  0  0  0  0
 25 26  4  0  0  0  0
 26 27  4  0  0  0  0
 27 22  4  0  0  0  0
 23 28  1  0  0  0  0
 28 29  1  0  0  0  0
 25 30  1  0  0  0  0
 30 31  1  0  0  0  0
 31 32  1  0  0  0  0
 32 33  1  0  0  0  0
 33 26  1  0  0  0  0
 32 34  1  0  0  0  0
 34 35  1  0  0  0  0
 35 36  1  0  0  0  0
 36 37  1  0  0  0  0
 37 33  1  0  0  0  0
 34 38  2  0  0  0  0
M  END
> <From>
www.bindingDB.org

> <BindingDB Reactant_set_id>
490552

> <Ligand InChI>
InChI=1S/C26H29ClN6O4S/c1-15(2)38(35,36)23-7-5-4-6-19(23)30-25-18(27)12-29-26(32-25)31-20-11-17-16(10-22(20)37-3)8-9-33-21(17)13-28-14-24(33)34/h4-7,10-12,15,21,28H,8-9,13-14H2,1-3H3,(H2,29,30,31,32)

> <Ligand InChI Key>
LVBJEZPSLPIGDT-UHFFFAOYSA-N

> <BindingDB MonomerID>
244039

> <BindingDB Ligand Name>
10-((5-chloro-4-(2-(isopropylsulfonyl)phenyl)aminopyrimidin-2-yl)amino)-9-methoxy-1,2,3,6,7,11b-hexahydro-4H-pyrazino[2,1-a]isoquinoline)-4-one::US10053458, 97

> <Target Name Assigned by Curator or DataSource>
ALK tyrosine kinase receptor

> <Target Source Organism According to Curator or DataSource>
Homo sapiens

> <Ki (nM)>


> <IC50 (nM)>
<10.00

> <Kd (nM)>


> <EC50 (nM)>


> <kon (M-1-s-1)>


> <koff (s-1)>


> <pH>


> <Temp C>
25.00

> <Curation/DataSource>
US Patent

> <Article DOI>


> <PMID>


> <PubChem AID>


> <Patent Number>
US10053458

> <Authors>
Yun, CS; Kim, HR; Cho, SY; Jung, HJ; Lee, K; Chae, CH; Lee, CO; Park, CH; Kim, P; Hwang, JY; Ha, JD; Ahn, SJ

> <Institution>
KOREA RESEARCH INSTITUTE OF CHEMICAL TECHNOLOGY

> <Link to Ligand in BindingDB>
http://www.bindingdb.org/bind/chemsearch/marvin/MolStructure.jsp?monomerid=244039

> <Link to Ligand-Target Pair in BindingDB>
http://www.bindingdb.org/jsp/dbsearch/PrimarySearch_ki.jsp?energyterm=kJ/mole&tag=pol&polymerid=5809&target=ALK+tyrosine+kinase+receptor&column=ki&startPg=0&Increment=50&submit=Search

> <Link to Ligand-Target Pair in BindingDB>
http://www.bindingdb.org/jsp/dbsearch/PrimarySearch_ki.jsp?energyterm=kJ/mole&tag=r21&monomerid=244039&enzyme=ALK+tyrosine+kinase+receptor&column=ki&startPg=0&Increment=50&submit=Search

> <Ligand HET ID in PDB>


> <PDB ID(s) for Ligand-Target Complex>


> <PubChem CID>
129148000

> <PubChem SID>
376221870

> <ChEBI ID of Ligand>


> <ChEMBL ID of Ligand>


> <DrugBank ID of Ligand>


> <IUPHAR_GRAC ID of Ligand>


> <KEGG ID of Ligand>


> <ZINC ID of Ligand>


> <Number of Protein Chains in Target (>1 implies a multichain complex)>
1

> <BindingDB Target Chain Sequence>
MGAIGLLWLLPLLLSTAAVGSGMGTGQRAGSPAAGPPLQPREPLSYSRLQRKSLAVDFVVPSLFRVYARDLLLPPSSSELKAGRPEARGSLALDCAPLLRLLGPAPGVSWTAGSPAPAEARTLSRVLKGGSVRKLRRAKQLVLELGEEAILEGCVGPPGEAAVGLLQFNLSELFSWWIRQGEGRLRIRLMPEKKASEVGREGRLSAAIRASQPRLLFQIFGTGHSSLESPTNMPSPSPDYFTWNLTWIMKDSFPFLSHRSRYGLECSFDFPCELEYSPPLHDLRNQSWSWRRIPSEEASQMDLLDGPGAERSKEMPRGSFLLLNTSADSKHTILSPWMRSSSEHCTLAVSVHRHLQPSGRYIAQLLPHNEAAREILLMPTPGKHGWTVLQGRIGRPDNPFRVALEYISSGNRSLSAVDFFALKNCSEGTSPGSKMALQSSFTCWNGTVLQLGQACDFHQDCAQGEDESQMCRKLPVGFYCNFEDGFCGWTQGTLSPHTPQWQVRTLKDARFQDHQDHALLLSTTDVPASESATVTSATFPAPIKSSPCELRMSWLIRGVLRGNVSLVLVENKTGKEQGRMVWHVAAYEGLSLWQWMVLPLLDVSDRFWLQMVAWWGQGSRAIVAFDNISISLDCYLTISGEDKILQNTAPKSRNLFERNPNKELKPGENSPRQTPIFDPTVHWLFTTCGASGPHGPTQAQCNNAYQNSNLSVEVGSEGPLKGIQIWKVPATDTYSISGYGAAGGKGGKNTMMRSHGVSVLGIFNLEKDDMLYILVGQQGEDACPSTNQLIQKVCIGENNVIEEEIRVNRSVHEWAGGGGGGGGATYVFKMKDGVPVPLIIAAGGGGRAYGAKTDTFHPERLENNSSVLGLNGNSGAAGGGGGWNDNTSLLWAGKSLQEGATGGHSCPQAMKKWGWETRGGFGGGGGGCSSGGGGGGYIGGNAASNNDPEMDGEDGVSFISPLGILYTPALKVMEGHGEVNIKHYLNCSHCEVDECHMDPESHKVICFCDHGTVLAEDGVSCIVSPTPEPHLPLSLILSVVTSALVAALVLAFSGIMIVYRRKHQELQAMQMELQSPEYKLSKLRTSTIMTDYNPNYCFAGKTSSISDLKEVPRKNITLIRGLGHGAFGEVYEGQVSGMPNDPSPLQVAVKTLPEVCSEQDELDFLMEALIISKFNHQNIVRCIGVSLQSLPRFILLELMAGGDLKSFLRETRPRPSQPSSLAMLDLLHVARDIACGCQYLEENHFIHRDIAARNCLLTCPGPGRVAKIGDFGMARDIYRASYYRKGGCAMLPVKWMPPEAFMEGIFTSKTDTWSFGVLLWEIFSLGYMPYPSKSNQEVLEFVTSGGRMDPPKNCPGPVYRIMTQCWQHQPEDRPNFAIILERIEYCTQDPDVINTALPIEYGPLVEEEEKVPVRPKDPEGVPPLLVSQQAKREEERSPAAPPPLPTTSSGKAAKKPTAAEISVRVPRGPAVEGGHVNMAFSQSNPPSELHKVHGSRNKPTSLWNPTYGSWFTEKPTKKNNPIAKKEPHDRGNLGLEGSCTVPPNVATGRLPGASLLLEPSSLTANMKEVPLFRLRHFPCGNVNYGYQQQGLPLEAATAPGAGHYEDTILKSKNSMNQPGP

> <PDB ID(s) of Target Chain>
2XB7,2XBA,3AOX,5FTO,5FTQ,6E0R,6EBW,6EDL,6MX8

> <UniProt (SwissProt) Recommended Name of Target Chain>
ALK tyrosine kinase receptor

> <UniProt (SwissProt) Entry Name of Target Chain>
ALK_HUMAN

> <UniProt (SwissProt) Primary ID of Target Chain>
Q9UM73

> <UniProt (SwissProt) Secondary ID(s) of Target Chain>
Q4ZFX9,Q53QQ6,Q53RZ4,Q59FI3,Q9Y4K6

> <UniProt (SwissProt) Alternative ID(s) of Target Chain>


> <UniProt (TrEMBL) Submitted Name of Target Chain>


> <UniProt (TrEMBL) Entry Name of Target Chain>


> <UniProt (TrEMBL) Primary ID of Target Chain>


> <UniProt (TrEMBL) Secondary ID(s) of Target Chain>


> <UniProt (TrEMBL) Alternative ID(s) of Target Chain>


$$$$
00279001.cdx
  Mrv0541 10181809492D          

 37 41  0  0  0  0            999 V2000
   -3.2151    1.9115    0.0000 C   0  0  0  0  0  0  0  0  0  0  0  0
   -3.2151    1.0865    0.0000 C   0  0  0  0  0  0  0  0  0  0  0  0
   -2.5006    0.6740    0.0000 C   0  0  0  0  0  0  0  0  0  0  0  0
   -1.7862    1.0865    0.0000 C   0  0  0  0  0  0  0  0  0  0  0  0
   -1.7862    1.9115    0.0000 C   0  0  0  0  0  0  0  0  0  0  0  0
   -2.5006    2.3240    0.0000 C   0  0  0  0  0  0  0  0  0  0  0  0
   -1.0717    0.6740    0.0000 N   0  0  0  0  0  0  0  0  0  0  0  0
   -0.3572    1.0865    0.0000 C   0  0  0  0  0  0  0  0  0  0  0  0
   -0.3572    1.9115    0.0000 C   0  0  0  0  0  0  0  0  0  0  0  0
   -1.0717    2.3240    0.0000 S   0  0  0  0  0  0  0  0  0  0  0  0
   -1.0717   -0.1510    0.0000 C   0  0  0  0  0  0  0  0  0  0  0  0
    0.3572    2.3240    0.0000 C   0  0  0  0  0  0  0  0  0  0  0  0
   -0.6592    3.0385    0.0000 O   0  0  0  0  0  0  0  0  0  0  0  0
   -1.6551    2.9074    0.0000 O   0  0  0  0  0  0  0  0  0  0  0  0
   -1.7862   -0.5635    0.0000 C   0  0  0  0  0  0  0  0  0  0  0  0
   -1.7862   -1.3885    0.0000 C   0  0  0  0  0  0  0  0  0  0  0  0
   -1.0717   -1.8010    0.0000 N   0  0  0  0  0  0  0  0  0  0  0  0
   -0.3572   -1.3885    0.0000 C   0  0  0  0  0  0  0  0  0  0  0  0
   -0.3572   -0.5635    0.0000 N   0  0  0  0  0  0  0  0  0  0  0  0
   -2.5006   -0.1510    0.0000 Cl  0  0  0  0  0  0  0  0  0  0  0  0
    0.3572   -1.8010    0.0000 N   0  0  0  0  0  0  0  0  0  0  0  0
    1.0717   -1.3885    0.0000 C   0  0  0  0  0  0  0  0  0  0  0  0
    1.7862   -1.8010    0.0000 C   0  0  0  0  0  0  0  0  0  0  0  0
    2.5006   -1.3885    0.0000 C   0  0  0  0  0  0  0  0  0  0  0  0
    2.5006   -0.5635    0.0000 C   0  0  0  0  0  0  0  0  0  0  0  0
    1.7862   -0.1510    0.0000 C   0  0  0  0  0  0  0  0  0  0  0  0
    1.0717   -0.5635    0.0000 C   0  0  0  0  0  0  0  0  0  0  0  0
    1.7862   -2.6260    0.0000 O   0  0  0  0  0  0  0  0  0  0  0  0
    2.5006   -3.0385    0.0000 C   0  0  0  0  0  0  0  0  0  0  0  0
    3.2151   -0.1510    0.0000 C   0  0  0  0  0  0  0  0  0  0  0  0
    3.2151    0.6740    0.0000 C   0  0  0  0  0  0  0  0  0  0  0  0
    2.5006    1.0865    0.0000 N   0  0  0  0  0  0  0  0  0  0  0  0
    1.7862    0.6740    0.0000 C   0  0  0  0  0  0  0  0  0  0  0  0
    2.5006    1.9115    0.0000 C   0  0  0  0  0  0  0  0  0  0  0  0
    1.7862    2.3240    0.0000 C   0  0  0  0  0  0  0  0  0  0  0  0
    1.0717    1.9115    0.0000 N   0  0  0  0  0  0  0  0  0  0  0  0
    1.0717    1.0865    0.0000 C   0  0  0  0  0  0  0  0  0  0  0  0
  1  2  4  0  0  0  0
  2  3  4  0  0  0  0
  3  4  4  0  0  0  0
  4  5  4  0  0  0  0
  5  6  4  0  0  0  0
  6  1  4  0  0  0  0
  4  7  1  0  0  0  0
  8  9  1  0  0  0  0
  9 10  1  0  0  0  0
 10  5  1  0  0  0  0
  7 11  1  0  0  0  0
  9 12  1  0  0  0  0
 10 13  2  0  0  0  0
 10 14  2  0  0  0  0
 11 15  4  0  0  0  0
 15 16  4  0  0  0  0
 16 17  4  0  0  0  0
 17 18  4  0  0  0  0
 18 19  4  0  0  0  0
 19 11  4  0  0  0  0
 15 20  1  0  0  0  0
 18 21  1  0  0  0  0
 21 22  1  0  0  0  0
 22 23  4  0  0  0  0
 23 24  4  0  0  0  0
 24 25  4  0  0  0  0
 25 26  4  0  0  0  0
 26 27  4  0  0  0  0
 27 22  4  0  0  0  0
 23 28  1  0  0  0  0
 28 29  1  0  0  0  0
 25 30  1  0  0  0  0
 30 31  1  0  0  0  0
 31 32  1  0  0  0  0
 32 33  1  0  0  0  0
 33 26  1  0  0  0  0
 32 34  1  0  0  0  0
 34 35  1  0  0  0  0
 35 36  1  0  0  0  0
 36 37  1  0  0  0  0
 37 33  1  0  0  0  0
M  END
> <From>
www.bindingDB.org

> <BindingDB Reactant_set_id>
50755041

> <Ligand InChI>
InChI=1S/C26H31ClN6O3S/c1-16(2)37(34,35)24-7-5-4-6-20(24)30-25-19(27)14-29-26(32-25)31-21-13-18-17(12-23(21)36-3)8-10-33-11-9-28-15-22(18)33/h4-7,12-14,16,22,28H,8-11,15H2,1-3H3,(H2,29,30,31,32)

> <Ligand InChI Key>
COMVVKFCZPWGAV-UHFFFAOYSA-N

> <BindingDB MonomerID>
244040

> <BindingDB Ligand Name>
5-chloro-N4-(2-(isopropylsulfonyl)phenyl)-N2-(9-methoxy-1,3,4,6,7-11b-hexahydro-2H-pyrazino[2,1-a]isoquinolin-10-yl)pyrimidine-2,4-diamine::US10053458, 98

> <Target Name Assigned by Curator or DataSource>
ALK tyrosine kinase receptor

> <Target Source Organism According to Curator or DataSource>
Homo sapiens

> <Ki (nM)>


> <IC50 (nM)>
 12

> <Kd (nM)>


> <EC50 (nM)>


> <kon (M-1-s-1)>


> <koff (s-1)>


> <pH>


> <Temp C>


> <Curation/DataSource>
ChEMBL

> <Article DOI>
10.1016/j.bmcl.2017.03.073

> <PMID>
28385505

> <PubChem AID>


> <Patent Number>


> <Authors>
Achary, R; Mathi, GR; Lee, DH; Yun, CS; Lee, CO; Kim, HR; Park, CH; Kim, P; Hwang, JY

> <Institution>
University of Science&amp; Technology

> <Link to Ligand in BindingDB>
http://www.bindingdb.org/bind/chemsearch/marvin/MolStructure.jsp?monomerid=244040

> <Link to Ligand-Target Pair in BindingDB>
http://www.bindingdb.org/jsp/dbsearch/PrimarySearch_ki.jsp?energyterm=kJ/mole&tag=pol&polymerid=5809&target=ALK+tyrosine+kinase+receptor&column=ki&startPg=0&Increment=50&submit=Search

> <Link to Ligand-Target Pair in BindingDB>
http://www.bindingdb.org/jsp/dbsearch/PrimarySearch_ki.jsp?energyterm=kJ/mole&tag=r21&monomerid=244040&enzyme=ALK+tyrosine+kinase+receptor&column=ki&startPg=0&Increment=50&submit=Search

> <Ligand HET ID in PDB>


> <PDB ID(s) for Ligand-Target Complex>


> <PubChem CID>
129048532

> <PubChem SID>
376221871

> <ChEBI ID of Ligand>


> <ChEMBL ID of Ligand>


> <DrugBank ID of Ligand>


> <IUPHAR_GRAC ID of Ligand>


> <KEGG ID of Ligand>


> <ZINC ID of Ligand>


> <Number of Protein Chains in Target (>1 implies a multichain complex)>
1

> <BindingDB Target Chain Sequence>
MGAIGLLWLLPLLLSTAAVGSGMGTGQRAGSPAAGPPLQPREPLSYSRLQRKSLAVDFVVPSLFRVYARDLLLPPSSSELKAGRPEARGSLALDCAPLLRLLGPAPGVSWTAGSPAPAEARTLSRVLKGGSVRKLRRAKQLVLELGEEAILEGCVGPPGEAAVGLLQFNLSELFSWWIRQGEGRLRIRLMPEKKASEVGREGRLSAAIRASQPRLLFQIFGTGHSSLESPTNMPSPSPDYFTWNLTWIMKDSFPFLSHRSRYGLECSFDFPCELEYSPPLHDLRNQSWSWRRIPSEEASQMDLLDGPGAERSKEMPRGSFLLLNTSADSKHTILSPWMRSSSEHCTLAVSVHRHLQPSGRYIAQLLPHNEAAREILLMPTPGKHGWTVLQGRIGRPDNPFRVALEYISSGNRSLSAVDFFALKNCSEGTSPGSKMALQSSFTCWNGTVLQLGQACDFHQDCAQGEDESQMCRKLPVGFYCNFEDGFCGWTQGTLSPHTPQWQVRTLKDARFQDHQDHALLLSTTDVPASESATVTSATFPAPIKSSPCELRMSWLIRGVLRGNVSLVLVENKTGKEQGRMVWHVAAYEGLSLWQWMVLPLLDVSDRFWLQMVAWWGQGSRAIVAFDNISISLDCYLTISGEDKILQNTAPKSRNLFERNPNKELKPGENSPRQTPIFDPTVHWLFTTCGASGPHGPTQAQCNNAYQNSNLSVEVGSEGPLKGIQIWKVPATDTYSISGYGAAGGKGGKNTMMRSHGVSVLGIFNLEKDDMLYILVGQQGEDACPSTNQLIQKVCIGENNVIEEEIRVNRSVHEWAGGGGGGGGATYVFKMKDGVPVPLIIAAGGGGRAYGAKTDTFHPERLENNSSVLGLNGNSGAAGGGGGWNDNTSLLWAGKSLQEGATGGHSCPQAMKKWGWETRGGFGGGGGGCSSGGGGGGYIGGNAASNNDPEMDGEDGVSFISPLGILYTPALKVMEGHGEVNIKHYLNCSHCEVDECHMDPESHKVICFCDHGTVLAEDGVSCIVSPTPEPHLPLSLILSVVTSALVAALVLAFSGIMIVYRRKHQELQAMQMELQSPEYKLSKLRTSTIMTDYNPNYCFAGKTSSISDLKEVPRKNITLIRGLGHGAFGEVYEGQVSGMPNDPSPLQVAVKTLPEVCSEQDELDFLMEALIISKFNHQNIVRCIGVSLQSLPRFILLELMAGGDLKSFLRETRPRPSQPSSLAMLDLLHVARDIACGCQYLEENHFIHRDIAARNCLLTCPGPGRVAKIGDFGMARDIYRASYYRKGGCAMLPVKWMPPEAFMEGIFTSKTDTWSFGVLLWEIFSLGYMPYPSKSNQEVLEFVTSGGRMDPPKNCPGPVYRIMTQCWQHQPEDRPNFAIILERIEYCTQDPDVINTALPIEYGPLVEEEEKVPVRPKDPEGVPPLLVSQQAKREEERSPAAPPPLPTTSSGKAAKKPTAAEISVRVPRGPAVEGGHVNMAFSQSNPPSELHKVHGSRNKPTSLWNPTYGSWFTEKPTKKNNPIAKKEPHDRGNLGLEGSCTVPPNVATGRLPGASLLLEPSSLTANMKEVPLFRLRHFPCGNVNYGYQQQGLPLEAATAPGAGHYEDTILKSKNSMNQPGP

> <PDB ID(s) of Target Chain>
2XB7,2XBA,3AOX,5FTO,5FTQ,6E0R,6EBW,6EDL,6MX8

> <UniProt (SwissProt) Recommended Name of Target Chain>
ALK tyrosine kinase receptor

> <UniProt (SwissProt) Entry Name of Target Chain>
ALK_HUMAN

> <UniProt (SwissProt) Primary ID of Target Chain>
Q9UM73

> <UniProt (SwissProt) Secondary ID(s) of Target Chain>
Q4ZFX9,Q53QQ6,Q53RZ4,Q59FI3,Q9Y4K6

> <UniProt (SwissProt) Alternative ID(s) of Target Chain>


> <UniProt (TrEMBL) Submitted Name of Target Chain>


> <UniProt (TrEMBL) Entry Name of Target Chain>


> <UniProt (TrEMBL) Primary ID of Target Chain>


> <UniProt (TrEMBL) Secondary ID(s) of Target Chain>


> <UniProt (TrEMBL) Alternative ID(s) of Target Chain>


$$$$
00280001.cdx
  Mrv0541 10181809492D          

 36 39  0  0  0  0            999 V2000
   -3.6276    2.3240    0.0000 C   0  0  0  0  0  0  0  0  0  0  0  0
   -3.6276    1.4990    0.0000 C   0  0  0  0  0  0  0  0  0  0  0  0
   -2.9131    1.0865    0.0000 C   0  0  0  0  0  0  0  0  0  0  0  0
   -2.1987    1.4990    0.0000 C   0  0  0  0  0  0  0  0  0  0  0  0
   -2.1987    2.3240    0.0000 C   0  0  0  0  0  0  0  0  0  0  0  0
   -2.9131    2.7365    0.0000 C   0  0  0  0  0  0  0  0  0  0  0  0
   -1.4842    1.0865    0.0000 N   0  0  0  0  0  0  0  0  0  0  0  0
   -0.7697    1.4990    0.0000 C   0  0  0  0  0  0  0  0  0  0  0  0
   -0.7697    2.3240    0.0000 C   0  0  0  0  0  0  0  0  0  0  0  0
   -1.4842    2.7365    0.0000 S   0  0  0  0  0  0  0  0  0  0  0  0
   -1.4842    0.2615    0.0000 C   0  0  0  0  0  0  0  0  0  0  0  0
   -0.0553    2.7365    0.0000 C   0  0  0  0  0  0  0  0  0  0  0  0
   -1.0717    3.4510    0.0000 O   0  0  0  0  0  0  0  0  0  0  0  0
   -2.0676    3.3199    0.0000 O   0  0  0  0  0  0  0  0  0  0  0  0
   -2.1987   -0.1510    0.0000 C   0  0  0  0  0  0  0  0  0  0  0  0
   -2.1987   -0.9760    0.0000 C   0  0  0  0  0  0  0  0  0  0  0  0
   -1.4842   -1.3885    0.0000 N   0  0  0  0  0  0  0  0  0  0  0  0
   -0.7697   -0.9760    0.0000 C   0  0  0  0  0  0  0  0  0  0  0  0
   -0.7697   -0.1510    0.0000 N   0  0  0  0  0  0  0  0  0  0  0  0
   -2.9131    0.2615    0.0000 Cl  0  0  0  0  0  0  0  0  0  0  0  0
   -0.0553   -1.3885    0.0000 N   0  0  0  0  0  0  0  0  0  0  0  0
    0.6592   -0.9760    0.0000 C   0  0  0  0  0  0  0  0  0  0  0  0
    1.3737   -1.3885    0.0000 C   0  0  0  0  0  0  0  0  0  0  0  0
    2.0881   -0.9760    0.0000 C   0  0  0  0  0  0  0  0  0  0  0  0
    2.0881   -0.1510    0.0000 C   0  0  0  0  0  0  0  0  0  0  0  0
    1.3737    0.2615    0.0000 C   0  0  0  0  0  0  0  0  0  0  0  0
    0.6592   -0.1510    0.0000 C   0  0  0  0  0  0  0  0  0  0  0  0
    1.3737   -2.2135    0.0000 O   0  0  0  0  0  0  0  0  0  0  0  0
    2.0881   -2.6260    0.0000 C   0  0  0  0  0  0  0  0  0  0  0  0
    2.8026    0.2615    0.0000 C   0  0  0  0  0  0  0  0  0  0  0  0
    2.8026    1.0865    0.0000 N   0  0  0  0  0  0  0  0  0  0  0  0
    2.0881    1.4990    0.0000 C   0  0  0  0  0  0  0  0  0  0  0  0
    1.3737    1.0865    0.0000 C   0  0  0  0  0  0  0  0  0  0  0  0
    3.2151   -0.4530    0.0000 C   0  0  0  0  0  0  0  0  0  0  0  0
    3.6276    0.2615    0.0000 C   0  0  0  0  0  0  0  0  0  0  0  0
    2.0881   -3.4510    0.0000 C   0  0  0  0  0  0  0  0  0  0  0  0
  1  2  4  0  0  0  0
  2  3  4  0  0  0  0
  3  4  4  0  0  0  0
  4  5  4  0  0  0  0
  5  6  4  0  0  0  0
  6  1  4  0  0  0  0
  4  7  1  0  0  0  0
  8  9  1  0  0  0  0
  9 10  1  0  0  0  0
 10  5  1  0  0  0  0
  7 11  1  0  0  0  0
  9 12  1  0  0  0  0
 10 13  2  0  0  0  0
 10 14  2  0  0  0  0
 11 15  4  0  0  0  0
 15 16  4  0  0  0  0
 16 17  4  0  0  0  0
 17 18  4  0  0  0  0
 18 19  4  0  0  0  0
 19 11  4  0  0  0  0
 15 20  1  0  0  0  0
 18 21  1  0  0  0  0
 21 22  1  0  0  0  0
 22 23  4  0  0  0  0
 23 24  4  0  0  0  0
 24 25  4  0  0  0  0
 25 26  4  0  0  0  0
 26 27  4  0  0  0  0
 27 22  4  0  0  0  0
 23 28  1  0  0  0  0
 28 29  1  0  0  0  0
 25 30  1  0  0  0  0
 30 31  1  0  0  0  0
 31 32  1  0  0  0  0
 32 33  1  0  0  0  0
 33 26  1  0  0  0  0
 30 34  1  0  0  0  0
 30 35  1  0  0  0  0
 29 36  1  0  0  0  0
M  END
> <From>
www.bindingDB.org

> <BindingDB Reactant_set_id>
490556

> <Ligand InChI>
InChI=1S/C26H32ClN5O3S/c1-6-35-22-14-18-17(11-12-29-26(18,4)5)13-21(22)31-25-28-15-19(27)24(32-25)30-20-9-7-8-10-23(20)36(33,34)16(2)3/h7-10,13-16,29H,6,11-12H2,1-5H3,(H2,28,30,31,32)

> <Ligand InChI Key>
CBIQNZJLCHBUFL-UHFFFAOYSA-N

> <BindingDB MonomerID>
244041

> <BindingDB Ligand Name>
5-chloro-N4-(2-(isopropylsulfonyl)phenyl)-N2-(7-ethoxy-1,1-dimethyl-1,2,3,4-tetrahydroisoquinolin-6-yl)pyrimidine-2,4-diamine::US10053458, 99

> <Target Name Assigned by Curator or DataSource>
ALK tyrosine kinase receptor

> <Target Source Organism According to Curator or DataSource>
Homo sapiens

> <Ki (nM)>


> <IC50 (nM)>
<10.00

> <Kd (nM)>


> <EC50 (nM)>


> <kon (M-1-s-1)>


> <koff (s-1)>


> <pH>


> <Temp C>
25.00

> <Curation/DataSource>
US Patent

> <Article DOI>


> <PMID>


> <PubChem AID>


> <Patent Number>
US10053458

> <Authors>
Yun, CS; Kim, HR; Cho, SY; Jung, HJ; Lee, K; Chae, CH; Lee, CO; Park, CH; Kim, P; Hwang, JY; Ha, JD; Ahn, SJ

> <Institution>
KOREA RESEARCH INSTITUTE OF CHEMICAL TECHNOLOGY

> <Link to Ligand in BindingDB>
http://www.bindingdb.org/bind/chemsearch/marvin/MolStructure.jsp?monomerid=244041

> <Link to Ligand-Target Pair in BindingDB>
http://www.bindingdb.org/jsp/dbsearch/PrimarySearch_ki.jsp?energyterm=kJ/mole&tag=pol&polymerid=5809&target=ALK+tyrosine+kinase+receptor&column=ki&startPg=0&Increment=50&submit=Search

> <Link to Ligand-Target Pair in BindingDB>
http://www.bindingdb.org/jsp/dbsearch/PrimarySearch_ki.jsp?energyterm=kJ/mole&tag=r21&monomerid=244041&enzyme=ALK+tyrosine+kinase+receptor&column=ki&startPg=0&Increment=50&submit=Search

> <Ligand HET ID in PDB>


> <PDB ID(s) for Ligand-Target Complex>


> <PubChem CID>
129048478

> <PubChem SID>
376221872

> <ChEBI ID of Ligand>


> <ChEMBL ID of Ligand>


> <DrugBank ID of Ligand>


> <IUPHAR_GRAC ID of Ligand>


> <KEGG ID of Ligand>


> <ZINC ID of Ligand>


> <Number of Protein Chains in Target (>1 implies a multichain complex)>
1

> <BindingDB Target Chain Sequence>
MGAIGLLWLLPLLLSTAAVGSGMGTGQRAGSPAAGPPLQPREPLSYSRLQRKSLAVDFVVPSLFRVYARDLLLPPSSSELKAGRPEARGSLALDCAPLLRLLGPAPGVSWTAGSPAPAEARTLSRVLKGGSVRKLRRAKQLVLELGEEAILEGCVGPPGEAAVGLLQFNLSELFSWWIRQGEGRLRIRLMPEKKASEVGREGRLSAAIRASQPRLLFQIFGTGHSSLESPTNMPSPSPDYFTWNLTWIMKDSFPFLSHRSRYGLECSFDFPCELEYSPPLHDLRNQSWSWRRIPSEEASQMDLLDGPGAERSKEMPRGSFLLLNTSADSKHTILSPWMRSSSEHCTLAVSVHRHLQPSGRYIAQLLPHNEAAREILLMPTPGKHGWTVLQGRIGRPDNPFRVALEYISSGNRSLSAVDFFALKNCSEGTSPGSKMALQSSFTCWNGTVLQLGQACDFHQDCAQGEDESQMCRKLPVGFYCNFEDGFCGWTQGTLSPHTPQWQVRTLKDARFQDHQDHALLLSTTDVPASESATVTSATFPAPIKSSPCELRMSWLIRGVLRGNVSLVLVENKTGKEQGRMVWHVAAYEGLSLWQWMVLPLLDVSDRFWLQMVAWWGQGSRAIVAFDNISISLDCYLTISGEDKILQNTAPKSRNLFERNPNKELKPGENSPRQTPIFDPTVHWLFTTCGASGPHGPTQAQCNNAYQNSNLSVEVGSEGPLKGIQIWKVPATDTYSISGYGAAGGKGGKNTMMRSHGVSVLGIFNLEKDDMLYILVGQQGEDACPSTNQLIQKVCIGENNVIEEEIRVNRSVHEWAGGGGGGGGATYVFKMKDGVPVPLIIAAGGGGRAYGAKTDTFHPERLENNSSVLGLNGNSGAAGGGGGWNDNTSLLWAGKSLQEGATGGHSCPQAMKKWGWETRGGFGGGGGGCSSGGGGGGYIGGNAASNNDPEMDGEDGVSFISPLGILYTPALKVMEGHGEVNIKHYLNCSHCEVDECHMDPESHKVICFCDHGTVLAEDGVSCIVSPTPEPHLPLSLILSVVTSALVAALVLAFSGIMIVYRRKHQELQAMQMELQSPEYKLSKLRTSTIMTDYNPNYCFAGKTSSISDLKEVPRKNITLIRGLGHGAFGEVYEGQVSGMPNDPSPLQVAVKTLPEVCSEQDELDFLMEALIISKFNHQNIVRCIGVSLQSLPRFILLELMAGGDLKSFLRETRPRPSQPSSLAMLDLLHVARDIACGCQYLEENHFIHRDIAARNCLLTCPGPGRVAKIGDFGMARDIYRASYYRKGGCAMLPVKWMPPEAFMEGIFTSKTDTWSFGVLLWEIFSLGYMPYPSKSNQEVLEFVTSGGRMDPPKNCPGPVYRIMTQCWQHQPEDRPNFAIILERIEYCTQDPDVINTALPIEYGPLVEEEEKVPVRPKDPEGVPPLLVSQQAKREEERSPAAPPPLPTTSSGKAAKKPTAAEISVRVPRGPAVEGGHVNMAFSQSNPPSELHKVHGSRNKPTSLWNPTYGSWFTEKPTKKNNPIAKKEPHDRGNLGLEGSCTVPPNVATGRLPGASLLLEPSSLTANMKEVPLFRLRHFPCGNVNYGYQQQGLPLEAATAPGAGHYEDTILKSKNSMNQPGP

> <PDB ID(s) of Target Chain>
2XB7,2XBA,3AOX,5FTO,5FTQ,6E0R,6EBW,6EDL,6MX8

> <UniProt (SwissProt) Recommended Name of Target Chain>
ALK tyrosine kinase receptor

> <UniProt (SwissProt) Entry Name of Target Chain>
ALK_HUMAN

> <UniProt (SwissProt) Primary ID of Target Chain>
Q9UM73

> <UniProt (SwissProt) Secondary ID(s) of Target Chain>
Q4ZFX9,Q53QQ6,Q53RZ4,Q59FI3,Q9Y4K6

> <UniProt (SwissProt) Alternative ID(s) of Target Chain>


> <UniProt (TrEMBL) Submitted Name of Target Chain>


> <UniProt (TrEMBL) Entry Name of Target Chain>


> <UniProt (TrEMBL) Primary ID of Target Chain>


> <UniProt (TrEMBL) Secondary ID(s) of Target Chain>


> <UniProt (TrEMBL) Alternative ID(s) of Target Chain>


$$$$
00281001.cdx
  Mrv0541 10181809492D          

 37 40  0  0  0  0            999 V2000
   -3.6276    2.3240    0.0000 C   0  0  0  0  0  0  0  0  0  0  0  0
   -3.6276    1.4990    0.0000 C   0  0  0  0  0  0  0  0  0  0  0  0
   -2.9131    1.0865    0.0000 C   0  0  0  0  0  0  0  0  0  0  0  0
   -2.1987    1.4990    0.0000 C   0  0  0  0  0  0  0  0  0  0  0  0
   -2.1987    2.3240    0.0000 C   0  0  0  0  0  0  0  0  0  0  0  0
   -2.9131    2.7365    0.0000 C   0  0  0  0  0  0  0  0  0  0  0  0
   -1.4842    1.0865    0.0000 N   0  0  0  0  0  0  0  0  0  0  0  0
   -0.7697    1.4990    0.0000 C   0  0  0  0  0  0  0  0  0  0  0  0
   -0.7697    2.3240    0.0000 C   0  0  0  0  0  0  0  0  0  0  0  0
   -1.4842    2.7365    0.0000 S   0  0  0  0  0  0  0  0  0  0  0  0
   -1.4842    0.2615    0.0000 C   0  0  0  0  0  0  0  0  0  0  0  0
   -0.0553    2.7365    0.0000 C   0  0  0  0  0  0  0  0  0  0  0  0
   -1.0717    3.4510    0.0000 O   0  0  0  0  0  0  0  0  0  0  0  0
   -2.0676    3.3199    0.0000 O   0  0  0  0  0  0  0  0  0  0  0  0
   -2.1987   -0.1510    0.0000 C   0  0  0  0  0  0  0  0  0  0  0  0
   -2.1987   -0.9760    0.0000 C   0  0  0  0  0  0  0  0  0  0  0  0
   -1.4842   -1.3885    0.0000 N   0  0  0  0  0  0  0  0  0  0  0  0
   -0.7697   -0.9760    0.0000 C   0  0  0  0  0  0  0  0  0  0  0  0
   -0.7697   -0.1510    0.0000 N   0  0  0  0  0  0  0  0  0  0  0  0
   -2.9131    0.2615    0.0000 Cl  0  0  0  0  0  0  0  0  0  0  0  0
   -0.0553   -1.3885    0.0000 N   0  0  0  0  0  0  0  0  0  0  0  0
    0.6592   -0.9760    0.0000 C   0  0  0  0  0  0  0  0  0  0  0  0
    1.3737   -1.3885    0.0000 C   0  0  0  0  0  0  0  0  0  0  0  0
    2.0881   -0.9760    0.0000 C   0  0  0  0  0  0  0  0  0  0  0  0
    2.0881   -0.1510    0.0000 C   0  0  0  0  0  0  0  0  0  0  0  0
    1.3737    0.2615    0.0000 C   0  0  0  0  0  0  0  0  0  0  0  0
    0.6592   -0.1510    0.0000 C   0  0  0  0  0  0  0  0  0  0  0  0
    1.3737   -2.2135    0.0000 O   0  0  0  0  0  0  0  0  0  0  0  0
    2.0881   -2.6260    0.0000 C   0  0  0  0  0  0  0  0  0  0  0  0
    2.8026    0.2615    0.0000 C   0  0  0  0  0  0  0  0  0  0  0  0
    2.8026    1.0865    0.0000 N   0  0  0  0  0  0  0  0  0  0  0  0
    2.0881    1.4990    0.0000 C   0  0  0  0  0  0  0  0  0  0  0  0
    1.3737    1.0865    0.0000 C   0  0  0  0  0  0  0  0  0  0  0  0
    3.2151   -0.4530    0.0000 C   0  0  0  0  0  0  0  0  0  0  0  0
    3.6276    0.2615    0.0000 C   0  0  0  0  0  0  0  0  0  0  0  0
    2.0881   -3.4510    0.0000 F   0  0  0  0  0  0  0  0  0  0  0  0
    2.8026   -2.2135    0.0000 F   0  0  0  0  0  0  0  0  0  0  0  0
  1  2  4  0  0  0  0
  2  3  4  0  0  0  0
  3  4  4  0  0  0  0
  4  5  4  0  0  0  0
  5  6  4  0  0  0  0
  6  1  4  0  0  0  0
  4  7  1  0  0  0  0
  8  9  1  0  0  0  0
  9 10  1  0  0  0  0
 10  5  1  0  0  0  0
  7 11  1  0  0  0  0
  9 12  1  0  0  0  0
 10 13  2  0  0  0  0
 10 14  2  0  0  0  0
 11 15  4  0  0  0  0
 15 16  4  0  0  0  0
 16 17  4  0  0  0  0
 17 18  4  0  0  0  0
 18 19  4  0  0  0  0
 19 11  4  0  0  0  0
 15 20  1  0  0  0  0
 18 21  1  0  0  0  0
 21 22  1  0  0  0  0
 22 23  4  0  0  0  0
 23 24  4  0  0  0  0
 24 25  4  0  0  0  0
 25 26  4  0  0  0  0
 26 27  4  0  0  0  0
 27 22  4  0  0  0  0
 23 28  1  0  0  0  0
 28 29  1  0  0  0  0
 25 30  1  0  0  0  0
 30 31  1  0  0  0  0
 31 32  1  0  0  0  0
 32 33  1  0  0  0  0
 33 26  1  0  0  0  0
 30 34  1  0  0  0  0
 30 35  1  0  0  0  0
 29 36  1  0  0  0  0
 29 37  1  0  0  0  0
M  END
> <From>
www.bindingDB.org

> <BindingDB Reactant_set_id>
490558

> <Ligand InChI>
InChI=1S/C25H28ClF2N5O3S/c1-14(2)37(34,35)21-8-6-5-7-18(21)31-22-17(26)13-29-24(33-22)32-19-11-15-9-10-30-25(3,4)16(15)12-20(19)36-23(27)28/h5-8,11-14,23,30H,9-10H2,1-4H3,(H2,29,31,32,33)

> <Ligand InChI Key>
ZRVVWGGKVUYSSL-UHFFFAOYSA-N

> <BindingDB MonomerID>
244042

> <BindingDB Ligand Name>
5-chloro-N4-(2-(isopropylsulfonyl)phenyl)-N2-(7-difluoromethoxy-1,1-dimethyl-1,2,3,4-tetrahydroisoquinolin-6-yl)pyrimidine-2,4-diamine::US10053458, 100

> <Target Name Assigned by Curator or DataSource>
ALK tyrosine kinase receptor

> <Target Source Organism According to Curator or DataSource>
Homo sapiens

> <Ki (nM)>


> <IC50 (nM)>
<10.00

> <Kd (nM)>


> <EC50 (nM)>


> <kon (M-1-s-1)>


> <koff (s-1)>


> <pH>


> <Temp C>
25.00

> <Curation/DataSource>
US Patent

> <Article DOI>


> <PMID>


> <PubChem AID>


> <Patent Number>
US10053458

> <Authors>
Yun, CS; Kim, HR; Cho, SY; Jung, HJ; Lee, K; Chae, CH; Lee, CO; Park, CH; Kim, P; Hwang, JY; Ha, JD; Ahn, SJ

> <Institution>
KOREA RESEARCH INSTITUTE OF CHEMICAL TECHNOLOGY

> <Link to Ligand in BindingDB>
http://www.bindingdb.org/bind/chemsearch/marvin/MolStructure.jsp?monomerid=244042

> <Link to Ligand-Target Pair in BindingDB>
http://www.bindingdb.org/jsp/dbsearch/PrimarySearch_ki.jsp?energyterm=kJ/mole&tag=pol&polymerid=5809&target=ALK+tyrosine+kinase+receptor&column=ki&startPg=0&Increment=50&submit=Search

> <Link to Ligand-Target Pair in BindingDB>
http://www.bindingdb.org/jsp/dbsearch/PrimarySearch_ki.jsp?energyterm=kJ/mole&tag=r21&monomerid=244042&enzyme=ALK+tyrosine+kinase+receptor&column=ki&startPg=0&Increment=50&submit=Search

> <Ligand HET ID in PDB>


> <PDB ID(s) for Ligand-Target Complex>


> <PubChem CID>
129048511

> <PubChem SID>
376221873

> <ChEBI ID of Ligand>


> <ChEMBL ID of Ligand>


> <DrugBank ID of Ligand>


> <IUPHAR_GRAC ID of Ligand>


> <KEGG ID of Ligand>


> <ZINC ID of Ligand>


> <Number of Protein Chains in Target (>1 implies a multichain complex)>
1

> <BindingDB Target Chain Sequence>
MGAIGLLWLLPLLLSTAAVGSGMGTGQRAGSPAAGPPLQPREPLSYSRLQRKSLAVDFVVPSLFRVYARDLLLPPSSSELKAGRPEARGSLALDCAPLLRLLGPAPGVSWTAGSPAPAEARTLSRVLKGGSVRKLRRAKQLVLELGEEAILEGCVGPPGEAAVGLLQFNLSELFSWWIRQGEGRLRIRLMPEKKASEVGREGRLSAAIRASQPRLLFQIFGTGHSSLESPTNMPSPSPDYFTWNLTWIMKDSFPFLSHRSRYGLECSFDFPCELEYSPPLHDLRNQSWSWRRIPSEEASQMDLLDGPGAERSKEMPRGSFLLLNTSADSKHTILSPWMRSSSEHCTLAVSVHRHLQPSGRYIAQLLPHNEAAREILLMPTPGKHGWTVLQGRIGRPDNPFRVALEYISSGNRSLSAVDFFALKNCSEGTSPGSKMALQSSFTCWNGTVLQLGQACDFHQDCAQGEDESQMCRKLPVGFYCNFEDGFCGWTQGTLSPHTPQWQVRTLKDARFQDHQDHALLLSTTDVPASESATVTSATFPAPIKSSPCELRMSWLIRGVLRGNVSLVLVENKTGKEQGRMVWHVAAYEGLSLWQWMVLPLLDVSDRFWLQMVAWWGQGSRAIVAFDNISISLDCYLTISGEDKILQNTAPKSRNLFERNPNKELKPGENSPRQTPIFDPTVHWLFTTCGASGPHGPTQAQCNNAYQNSNLSVEVGSEGPLKGIQIWKVPATDTYSISGYGAAGGKGGKNTMMRSHGVSVLGIFNLEKDDMLYILVGQQGEDACPSTNQLIQKVCIGENNVIEEEIRVNRSVHEWAGGGGGGGGATYVFKMKDGVPVPLIIAAGGGGRAYGAKTDTFHPERLENNSSVLGLNGNSGAAGGGGGWNDNTSLLWAGKSLQEGATGGHSCPQAMKKWGWETRGGFGGGGGGCSSGGGGGGYIGGNAASNNDPEMDGEDGVSFISPLGILYTPALKVMEGHGEVNIKHYLNCSHCEVDECHMDPESHKVICFCDHGTVLAEDGVSCIVSPTPEPHLPLSLILSVVTSALVAALVLAFSGIMIVYRRKHQELQAMQMELQSPEYKLSKLRTSTIMTDYNPNYCFAGKTSSISDLKEVPRKNITLIRGLGHGAFGEVYEGQVSGMPNDPSPLQVAVKTLPEVCSEQDELDFLMEALIISKFNHQNIVRCIGVSLQSLPRFILLELMAGGDLKSFLRETRPRPSQPSSLAMLDLLHVARDIACGCQYLEENHFIHRDIAARNCLLTCPGPGRVAKIGDFGMARDIYRASYYRKGGCAMLPVKWMPPEAFMEGIFTSKTDTWSFGVLLWEIFSLGYMPYPSKSNQEVLEFVTSGGRMDPPKNCPGPVYRIMTQCWQHQPEDRPNFAIILERIEYCTQDPDVINTALPIEYGPLVEEEEKVPVRPKDPEGVPPLLVSQQAKREEERSPAAPPPLPTTSSGKAAKKPTAAEISVRVPRGPAVEGGHVNMAFSQSNPPSELHKVHGSRNKPTSLWNPTYGSWFTEKPTKKNNPIAKKEPHDRGNLGLEGSCTVPPNVATGRLPGASLLLEPSSLTANMKEVPLFRLRHFPCGNVNYGYQQQGLPLEAATAPGAGHYEDTILKSKNSMNQPGP

> <PDB ID(s) of Target Chain>
2XB7,2XBA,3AOX,5FTO,5FTQ,6E0R,6EBW,6EDL,6MX8

> <UniProt (SwissProt) Recommended Name of Target Chain>
ALK tyrosine kinase receptor

> <UniProt (SwissProt) Entry Name of Target Chain>
ALK_HUMAN

> <UniProt (SwissProt) Primary ID of Target Chain>
Q9UM73

> <UniProt (SwissProt) Secondary ID(s) of Target Chain>
Q4ZFX9,Q53QQ6,Q53RZ4,Q59FI3,Q9Y4K6

> <UniProt (SwissProt) Alternative ID(s) of Target Chain>


> <UniProt (TrEMBL) Submitted Name of Target Chain>


> <UniProt (TrEMBL) Entry Name of Target Chain>


> <UniProt (TrEMBL) Primary ID of Target Chain>


> <UniProt (TrEMBL) Secondary ID(s) of Target Chain>


> <UniProt (TrEMBL) Alternative ID(s) of Target Chain>


$$$$
00287001.cdx
  Mrv0541 10181809492D          

 36 39  0  0  0  0            999 V2000
   -4.2868    1.9115    0.0000 C   0  0  0  0  0  0  0  0  0  0  0  0
   -4.2868    1.0865    0.0000 C   0  0  0  0  0  0  0  0  0  0  0  0
   -3.5724    0.6740    0.0000 C   0  0  0  0  0  0  0  0  0  0  0  0
   -2.8579    1.0865    0.0000 C   0  0  0  0  0  0  0  0  0  0  0  0
   -2.8579    1.9115    0.0000 C   0  0  0  0  0  0  0  0  0  0  0  0
   -3.5724    2.3240    0.0000 C   0  0  0  0  0  0  0  0  0  0  0  0
   -2.1434    0.6740    0.0000 N   0  0  0  0  0  0  0  0  0  0  0  0
   -1.4289    1.0865    0.0000 C   0  0  0  0  0  0  0  0  0  0  0  0
   -1.4289    1.9115    0.0000 C   0  0  0  0  0  0  0  0  0  0  0  0
   -2.1434    2.3240    0.0000 S   0  0  0  0  0  0  0  0  0  0  0  0
   -2.1434   -0.1510    0.0000 C   0  0  0  0  0  0  0  0  0  0  0  0
   -0.7145    2.3240    0.0000 C   0  0  0  0  0  0  0  0  0  0  0  0
   -1.7309    3.0385    0.0000 O   0  0  0  0  0  0  0  0  0  0  0  0
   -2.7268    2.9074    0.0000 O   0  0  0  0  0  0  0  0  0  0  0  0
   -2.8579   -0.5635    0.0000 C   0  0  0  0  0  0  0  0  0  0  0  0
   -2.8579   -1.3885    0.0000 C   0  0  0  0  0  0  0  0  0  0  0  0
   -2.1434   -1.8010    0.0000 N   0  0  0  0  0  0  0  0  0  0  0  0
   -1.4289   -1.3885    0.0000 C   0  0  0  0  0  0  0  0  0  0  0  0
   -1.4289   -0.5635    0.0000 N   0  0  0  0  0  0  0  0  0  0  0  0
   -3.5724   -0.1510    0.0000 Cl  0  0  0  0  0  0  0  0  0  0  0  0
   -0.7145   -1.8010    0.0000 N   0  0  0  0  0  0  0  0  0  0  0  0
    0.0000   -1.3885    0.0000 C   0  0  0  0  0  0  0  0  0  0  0  0
    0.7145   -1.8010    0.0000 C   0  0  0  0  0  0  0  0  0  0  0  0
    1.4289   -1.3885    0.0000 C   0  0  0  0  0  0  0  0  0  0  0  0
    1.4289   -0.5635    0.0000 C   0  0  0  0  0  0  0  0  0  0  0  0
    0.7145   -0.1510    0.0000 C   0  0  0  0  0  0  0  0  0  0  0  0
    0.0000   -0.5635    0.0000 C   0  0  0  0  0  0  0  0  0  0  0  0
    0.7145   -2.6260    0.0000 O   0  0  0  0  0  0  0  0  0  0  0  0
    1.4289   -3.0385    0.0000 C   0  0  0  0  0  0  0  0  0  0  0  0
    2.1434   -0.1510    0.0000 C   0  0  0  0  0  0  0  0  0  0  0  0
    2.1434    0.6740    0.0000 N   0  0  0  0  0  0  0  0  0  0  0  0
    1.4289    1.0865    0.0000 C   0  0  0  0  0  0  0  0  0  0  0  0
    0.7145    0.6740    0.0000 C   0  0  0  0  0  0  0  0  0  0  0  0
    2.8579   -0.5635    0.0000 C   0  0  0  0  0  0  0  0  0  0  0  0
    3.5724   -0.1510    0.0000 C   0  0  0  0  0  0  0  0  0  0  0  0
    4.2868   -0.5635    0.0000 C   0  0  0  0  0  0  0  0  0  0  0  0
  1  2  4  0  0  0  0
  2  3  4  0  0  0  0
  3  4  4  0  0  0  0
  4  5  4  0  0  0  0
  5  6  4  0  0  0  0
  6  1  4  0  0  0  0
  4  7  1  0  0  0  0
  8  9  1  0  0  0  0
  9 10  1  0  0  0  0
 10  5  1  0  0  0  0
  7 11  1  0  0  0  0
  9 12  1  0  0  0  0
 10 13  2  0  0  0  0
 10 14  2  0  0  0  0
 11 15  4  0  0  0  0
 15 16  4  0  0  0  0
 16 17  4  0  0  0  0
 17 18  4  0  0  0  0
 18 19  4  0  0  0  0
 19 11  4  0  0  0  0
 15 20  1  0  0  0  0
 18 21  1  0  0  0  0
 21 22  1  0  0  0  0
 22 23  4  0  0  0  0
 23 24  4  0  0  0  0
 24 25  4  0  0  0  0
 25 26  4  0  0  0  0
 26 27  4  0  0  0  0
 27 22  4  0  0  0  0
 23 28  1  0  0  0  0
 28 29  1  0  0  0  0
 25 30  1  0  0  0  0
 30 31  1  0  0  0  0
 31 32  1  0  0  0  0
 32 33  1  0  0  0  0
 33 26  1  0  0  0  0
 30 34  1  0  0  0  0
 34 35  1  0  0  0  0
 35 36  1  0  0  0  0
M  END
> <From>
www.bindingDB.org

> <BindingDB Reactant_set_id>
490562

> <Ligand InChI>
InChI=1S/C26H32ClN5O3S/c1-5-8-20-18-14-23(35-4)22(13-17(18)11-12-28-20)31-26-29-15-19(27)25(32-26)30-21-9-6-7-10-24(21)36(33,34)16(2)3/h6-7,9-10,13-16,20,28H,5,8,11-12H2,1-4H3,(H2,29,30,31,32)

> <Ligand InChI Key>
JVDLVGMFRPUTQT-UHFFFAOYSA-N

> <BindingDB MonomerID>
244044

> <BindingDB Ligand Name>
5-chloro-N4-(2-(isopropylsulfonyl)phenyl)-N2-(7-methoxy-1-propyl-1,2,3,4-tetrahydroisoquinolin-6-yl)pyrimidine-2,4-diamine::US10053458, 102

> <Target Name Assigned by Curator or DataSource>
ALK tyrosine kinase receptor

> <Target Source Organism According to Curator or DataSource>
Homo sapiens

> <Ki (nM)>


> <IC50 (nM)>
<10.00

> <Kd (nM)>


> <EC50 (nM)>


> <kon (M-1-s-1)>


> <koff (s-1)>


> <pH>


> <Temp C>
25.00

> <Curation/DataSource>
US Patent

> <Article DOI>


> <PMID>


> <PubChem AID>


> <Patent Number>
US10053458

> <Authors>
Yun, CS; Kim, HR; Cho, SY; Jung, HJ; Lee, K; Chae, CH; Lee, CO; Park, CH; Kim, P; Hwang, JY; Ha, JD; Ahn, SJ

> <Institution>
KOREA RESEARCH INSTITUTE OF CHEMICAL TECHNOLOGY

> <Link to Ligand in BindingDB>
http://www.bindingdb.org/bind/chemsearch/marvin/MolStructure.jsp?monomerid=244044

> <Link to Ligand-Target Pair in BindingDB>
http://www.bindingdb.org/jsp/dbsearch/PrimarySearch_ki.jsp?energyterm=kJ/mole&tag=pol&polymerid=5809&target=ALK+tyrosine+kinase+receptor&column=ki&startPg=0&Increment=50&submit=Search

> <Link to Ligand-Target Pair in BindingDB>
http://www.bindingdb.org/jsp/dbsearch/PrimarySearch_ki.jsp?energyterm=kJ/mole&tag=r21&monomerid=244044&enzyme=ALK+tyrosine+kinase+receptor&column=ki&startPg=0&Increment=50&submit=Search

> <Ligand HET ID in PDB>


> <PDB ID(s) for Ligand-Target Complex>


> <PubChem CID>
129048446

> <PubChem SID>
376221874

> <ChEBI ID of Ligand>


> <ChEMBL ID of Ligand>


> <DrugBank ID of Ligand>


> <IUPHAR_GRAC ID of Ligand>


> <KEGG ID of Ligand>


> <ZINC ID of Ligand>


> <Number of Protein Chains in Target (>1 implies a multichain complex)>
1

> <BindingDB Target Chain Sequence>
MGAIGLLWLLPLLLSTAAVGSGMGTGQRAGSPAAGPPLQPREPLSYSRLQRKSLAVDFVVPSLFRVYARDLLLPPSSSELKAGRPEARGSLALDCAPLLRLLGPAPGVSWTAGSPAPAEARTLSRVLKGGSVRKLRRAKQLVLELGEEAILEGCVGPPGEAAVGLLQFNLSELFSWWIRQGEGRLRIRLMPEKKASEVGREGRLSAAIRASQPRLLFQIFGTGHSSLESPTNMPSPSPDYFTWNLTWIMKDSFPFLSHRSRYGLECSFDFPCELEYSPPLHDLRNQSWSWRRIPSEEASQMDLLDGPGAERSKEMPRGSFLLLNTSADSKHTILSPWMRSSSEHCTLAVSVHRHLQPSGRYIAQLLPHNEAAREILLMPTPGKHGWTVLQGRIGRPDNPFRVALEYISSGNRSLSAVDFFALKNCSEGTSPGSKMALQSSFTCWNGTVLQLGQACDFHQDCAQGEDESQMCRKLPVGFYCNFEDGFCGWTQGTLSPHTPQWQVRTLKDARFQDHQDHALLLSTTDVPASESATVTSATFPAPIKSSPCELRMSWLIRGVLRGNVSLVLVENKTGKEQGRMVWHVAAYEGLSLWQWMVLPLLDVSDRFWLQMVAWWGQGSRAIVAFDNISISLDCYLTISGEDKILQNTAPKSRNLFERNPNKELKPGENSPRQTPIFDPTVHWLFTTCGASGPHGPTQAQCNNAYQNSNLSVEVGSEGPLKGIQIWKVPATDTYSISGYGAAGGKGGKNTMMRSHGVSVLGIFNLEKDDMLYILVGQQGEDACPSTNQLIQKVCIGENNVIEEEIRVNRSVHEWAGGGGGGGGATYVFKMKDGVPVPLIIAAGGGGRAYGAKTDTFHPERLENNSSVLGLNGNSGAAGGGGGWNDNTSLLWAGKSLQEGATGGHSCPQAMKKWGWETRGGFGGGGGGCSSGGGGGGYIGGNAASNNDPEMDGEDGVSFISPLGILYTPALKVMEGHGEVNIKHYLNCSHCEVDECHMDPESHKVICFCDHGTVLAEDGVSCIVSPTPEPHLPLSLILSVVTSALVAALVLAFSGIMIVYRRKHQELQAMQMELQSPEYKLSKLRTSTIMTDYNPNYCFAGKTSSISDLKEVPRKNITLIRGLGHGAFGEVYEGQVSGMPNDPSPLQVAVKTLPEVCSEQDELDFLMEALIISKFNHQNIVRCIGVSLQSLPRFILLELMAGGDLKSFLRETRPRPSQPSSLAMLDLLHVARDIACGCQYLEENHFIHRDIAARNCLLTCPGPGRVAKIGDFGMARDIYRASYYRKGGCAMLPVKWMPPEAFMEGIFTSKTDTWSFGVLLWEIFSLGYMPYPSKSNQEVLEFVTSGGRMDPPKNCPGPVYRIMTQCWQHQPEDRPNFAIILERIEYCTQDPDVINTALPIEYGPLVEEEEKVPVRPKDPEGVPPLLVSQQAKREEERSPAAPPPLPTTSSGKAAKKPTAAEISVRVPRGPAVEGGHVNMAFSQSNPPSELHKVHGSRNKPTSLWNPTYGSWFTEKPTKKNNPIAKKEPHDRGNLGLEGSCTVPPNVATGRLPGASLLLEPSSLTANMKEVPLFRLRHFPCGNVNYGYQQQGLPLEAATAPGAGHYEDTILKSKNSMNQPGP

> <PDB ID(s) of Target Chain>
2XB7,2XBA,3AOX,5FTO,5FTQ,6E0R,6EBW,6EDL,6MX8

> <UniProt (SwissProt) Recommended Name of Target Chain>
ALK tyrosine kinase receptor

> <UniProt (SwissProt) Entry Name of Target Chain>
ALK_HUMAN

> <UniProt (SwissProt) Primary ID of Target Chain>
Q9UM73

> <UniProt (SwissProt) Secondary ID(s) of Target Chain>
Q4ZFX9,Q53QQ6,Q53RZ4,Q59FI3,Q9Y4K6

> <UniProt (SwissProt) Alternative ID(s) of Target Chain>


> <UniProt (TrEMBL) Submitted Name of Target Chain>


> <UniProt (TrEMBL) Entry Name of Target Chain>


> <UniProt (TrEMBL) Primary ID of Target Chain>


> <UniProt (TrEMBL) Secondary ID(s) of Target Chain>


> <UniProt (TrEMBL) Alternative ID(s) of Target Chain>


$$$$
00288001.cdx
  Mrv0541 10181809492D          

 35 38  0  0  0  0            999 V2000
   -3.5724    1.9115    0.0000 C   0  0  0  0  0  0  0  0  0  0  0  0
   -3.5724    1.0865    0.0000 C   0  0  0  0  0  0  0  0  0  0  0  0
   -2.8579    0.6740    0.0000 C   0  0  0  0  0  0  0  0  0  0  0  0
   -2.1434    1.0865    0.0000 C   0  0  0  0  0  0  0  0  0  0  0  0
   -2.1434    1.9115    0.0000 C   0  0  0  0  0  0  0  0  0  0  0  0
   -2.8579    2.3240    0.0000 C   0  0  0  0  0  0  0  0  0  0  0  0
   -1.4289    0.6740    0.0000 N   0  0  0  0  0  0  0  0  0  0  0  0
   -0.7145    1.0865    0.0000 C   0  0  0  0  0  0  0  0  0  0  0  0
   -0.7145    1.9115    0.0000 C   0  0  0  0  0  0  0  0  0  0  0  0
   -1.4289    2.3240    0.0000 S   0  0  0  0  0  0  0  0  0  0  0  0
   -1.4289   -0.1510    0.0000 C   0  0  0  0  0  0  0  0  0  0  0  0
    0.0000    2.3240    0.0000 C   0  0  0  0  0  0  0  0  0  0  0  0
   -1.0164    3.0385    0.0000 O   0  0  0  0  0  0  0  0  0  0  0  0
   -2.0123    2.9074    0.0000 O   0  0  0  0  0  0  0  0  0  0  0  0
   -2.1434   -0.5635    0.0000 C   0  0  0  0  0  0  0  0  0  0  0  0
   -2.1434   -1.3885    0.0000 C   0  0  0  0  0  0  0  0  0  0  0  0
   -1.4289   -1.8010    0.0000 N   0  0  0  0  0  0  0  0  0  0  0  0
   -0.7145   -1.3885    0.0000 C   0  0  0  0  0  0  0  0  0  0  0  0
   -0.7145   -0.5635    0.0000 N   0  0  0  0  0  0  0  0  0  0  0  0
   -2.8579   -0.1510    0.0000 Cl  0  0  0  0  0  0  0  0  0  0  0  0
    0.0000   -1.8010    0.0000 N   0  0  0  0  0  0  0  0  0  0  0  0
    0.7145   -1.3885    0.0000 C   0  0  0  0  0  0  0  0  0  0  0  0
    1.4289   -1.8010    0.0000 C   0  0  0  0  0  0  0  0  0  0  0  0
    2.1434   -1.3885    0.0000 C   0  0  0  0  0  0  0  0  0  0  0  0
    2.1434   -0.5635    0.0000 C   0  0  0  0  0  0  0  0  0  0  0  0
    1.4289   -0.1510    0.0000 C   0  0  0  0  0  0  0  0  0  0  0  0
    0.7145   -0.5635    0.0000 C   0  0  0  0  0  0  0  0  0  0  0  0
    1.4289   -2.6260    0.0000 O   0  0  0  0  0  0  0  0  0  0  0  0
    2.1434   -3.0385    0.0000 C   0  0  0  0  0  0  0  0  0  0  0  0
    2.8579   -0.1510    0.0000 C   0  0  0  0  0  0  0  0  0  0  0  0
    2.8579    0.6740    0.0000 N   0  0  0  0  0  0  0  0  0  0  0  0
    2.1434    1.0865    0.0000 C   0  0  0  0  0  0  0  0  0  0  0  0
    1.4289    0.6740    0.0000 C   0  0  0  0  0  0  0  0  0  0  0  0
    3.5724    1.0865    0.0000 C   0  0  0  0  0  0  0  0  0  0  0  0
    2.8579    1.4990    0.0000 C   0  0  0  0  0  0  0  0  0  0  0  0
  1  2  4  0  0  0  0
  2  3  4  0  0  0  0
  3  4  4  0  0  0  0
  4  5  4  0  0  0  0
  5  6  4  0  0  0  0
  6  1  4  0  0  0  0
  4  7  1  0  0  0  0
  8  9  1  0  0  0  0
  9 10  1  0  0  0  0
 10  5  1  0  0  0  0
  7 11  1  0  0  0  0
  9 12  1  0  0  0  0
 10 13  2  0  0  0  0
 10 14  2  0  0  0  0
 11 15  4  0  0  0  0
 15 16  4  0  0  0  0
 16 17  4  0  0  0  0
 17 18  4  0  0  0  0
 18 19  4  0  0  0  0
 19 11  4  0  0  0  0
 15 20  1  0  0  0  0
 18 21  1  0  0  0  0
 21 22  1  0  0  0  0
 22 23  4  0  0  0  0
 23 24  4  0  0  0  0
 24 25  4  0  0  0  0
 25 26  4  0  0  0  0
 26 27  4  0  0  0  0
 27 22  4  0  0  0  0
 23 28  1  0  0  0  0
 28 29  1  0  0  0  0
 25 30  1  0  0  0  0
 30 31  1  0  0  0  0
 31 32  1  0  0  0  0
 32 33  1  0  0  0  0
 33 26  1  0  0  0  0
 31 34  1  0  0  0  0
 31 35  1  0  0  0  0
M  END
> <From>
www.bindingDB.org

> <BindingDB Reactant_set_id>
490564

> <Ligand InChI>
InChI=1S/C25H31ClN5O3S/c1-16(2)35(32,33)23-9-7-6-8-20(23)28-24-19(26)14-27-25(30-24)29-21-12-17-10-11-31(3,4)15-18(17)13-22(21)34-5/h6-9,12-14,16H,10-11,15H2,1-5H3,(H2,27,28,29,30)

> <Ligand InChI Key>
CYXDYSQAUKPPKN-UHFFFAOYSA-N

> <BindingDB MonomerID>
244095

> <BindingDB Ligand Name>
6-((5-chloro-4-((2-(isopropylsulfonyl)phenyl)amino)pyridin-2-yl)amino)-7-methoxy-2,2-dimethyl-1,2,3,4-tetrahydroisoquinolin-2-ium iodide::US10053458, 103

> <Target Name Assigned by Curator or DataSource>
ALK tyrosine kinase receptor

> <Target Source Organism According to Curator or DataSource>
Homo sapiens

> <Ki (nM)>


> <IC50 (nM)>
<10.00

> <Kd (nM)>


> <EC50 (nM)>


> <kon (M-1-s-1)>


> <koff (s-1)>


> <pH>


> <Temp C>
25.00

> <Curation/DataSource>
US Patent

> <Article DOI>


> <PMID>


> <PubChem AID>


> <Patent Number>
US10053458

> <Authors>
Yun, CS; Kim, HR; Cho, SY; Jung, HJ; Lee, K; Chae, CH; Lee, CO; Park, CH; Kim, P; Hwang, JY; Ha, JD; Ahn, SJ

> <Institution>
KOREA RESEARCH INSTITUTE OF CHEMICAL TECHNOLOGY

> <Link to Ligand in BindingDB>
http://www.bindingdb.org/bind/chemsearch/marvin/MolStructure.jsp?monomerid=244095

> <Link to Ligand-Target Pair in BindingDB>
http://www.bindingdb.org/jsp/dbsearch/PrimarySearch_ki.jsp?energyterm=kJ/mole&tag=pol&polymerid=5809&target=ALK+tyrosine+kinase+receptor&column=ki&startPg=0&Increment=50&submit=Search

> <Link to Ligand-Target Pair in BindingDB>
http://www.bindingdb.org/jsp/dbsearch/PrimarySearch_ki.jsp?energyterm=kJ/mole&tag=r21&monomerid=244095&enzyme=ALK+tyrosine+kinase+receptor&column=ki&startPg=0&Increment=50&submit=Search

> <Ligand HET ID in PDB>


> <PDB ID(s) for Ligand-Target Complex>


> <PubChem CID>
134823053

> <PubChem SID>
376221875

> <ChEBI ID of Ligand>


> <ChEMBL ID of Ligand>


> <DrugBank ID of Ligand>


> <IUPHAR_GRAC ID of Ligand>


> <KEGG ID of Ligand>


> <ZINC ID of Ligand>


> <Number of Protein Chains in Target (>1 implies a multichain complex)>
1

> <BindingDB Target Chain Sequence>
MGAIGLLWLLPLLLSTAAVGSGMGTGQRAGSPAAGPPLQPREPLSYSRLQRKSLAVDFVVPSLFRVYARDLLLPPSSSELKAGRPEARGSLALDCAPLLRLLGPAPGVSWTAGSPAPAEARTLSRVLKGGSVRKLRRAKQLVLELGEEAILEGCVGPPGEAAVGLLQFNLSELFSWWIRQGEGRLRIRLMPEKKASEVGREGRLSAAIRASQPRLLFQIFGTGHSSLESPTNMPSPSPDYFTWNLTWIMKDSFPFLSHRSRYGLECSFDFPCELEYSPPLHDLRNQSWSWRRIPSEEASQMDLLDGPGAERSKEMPRGSFLLLNTSADSKHTILSPWMRSSSEHCTLAVSVHRHLQPSGRYIAQLLPHNEAAREILLMPTPGKHGWTVLQGRIGRPDNPFRVALEYISSGNRSLSAVDFFALKNCSEGTSPGSKMALQSSFTCWNGTVLQLGQACDFHQDCAQGEDESQMCRKLPVGFYCNFEDGFCGWTQGTLSPHTPQWQVRTLKDARFQDHQDHALLLSTTDVPASESATVTSATFPAPIKSSPCELRMSWLIRGVLRGNVSLVLVENKTGKEQGRMVWHVAAYEGLSLWQWMVLPLLDVSDRFWLQMVAWWGQGSRAIVAFDNISISLDCYLTISGEDKILQNTAPKSRNLFERNPNKELKPGENSPRQTPIFDPTVHWLFTTCGASGPHGPTQAQCNNAYQNSNLSVEVGSEGPLKGIQIWKVPATDTYSISGYGAAGGKGGKNTMMRSHGVSVLGIFNLEKDDMLYILVGQQGEDACPSTNQLIQKVCIGENNVIEEEIRVNRSVHEWAGGGGGGGGATYVFKMKDGVPVPLIIAAGGGGRAYGAKTDTFHPERLENNSSVLGLNGNSGAAGGGGGWNDNTSLLWAGKSLQEGATGGHSCPQAMKKWGWETRGGFGGGGGGCSSGGGGGGYIGGNAASNNDPEMDGEDGVSFISPLGILYTPALKVMEGHGEVNIKHYLNCSHCEVDECHMDPESHKVICFCDHGTVLAEDGVSCIVSPTPEPHLPLSLILSVVTSALVAALVLAFSGIMIVYRRKHQELQAMQMELQSPEYKLSKLRTSTIMTDYNPNYCFAGKTSSISDLKEVPRKNITLIRGLGHGAFGEVYEGQVSGMPNDPSPLQVAVKTLPEVCSEQDELDFLMEALIISKFNHQNIVRCIGVSLQSLPRFILLELMAGGDLKSFLRETRPRPSQPSSLAMLDLLHVARDIACGCQYLEENHFIHRDIAARNCLLTCPGPGRVAKIGDFGMARDIYRASYYRKGGCAMLPVKWMPPEAFMEGIFTSKTDTWSFGVLLWEIFSLGYMPYPSKSNQEVLEFVTSGGRMDPPKNCPGPVYRIMTQCWQHQPEDRPNFAIILERIEYCTQDPDVINTALPIEYGPLVEEEEKVPVRPKDPEGVPPLLVSQQAKREEERSPAAPPPLPTTSSGKAAKKPTAAEISVRVPRGPAVEGGHVNMAFSQSNPPSELHKVHGSRNKPTSLWNPTYGSWFTEKPTKKNNPIAKKEPHDRGNLGLEGSCTVPPNVATGRLPGASLLLEPSSLTANMKEVPLFRLRHFPCGNVNYGYQQQGLPLEAATAPGAGHYEDTILKSKNSMNQPGP

> <PDB ID(s) of Target Chain>
2XB7,2XBA,3AOX,5FTO,5FTQ,6E0R,6EBW,6EDL,6MX8

> <UniProt (SwissProt) Recommended Name of Target Chain>
ALK tyrosine kinase receptor

> <UniProt (SwissProt) Entry Name of Target Chain>
ALK_HUMAN

> <UniProt (SwissProt) Primary ID of Target Chain>
Q9UM73

> <UniProt (SwissProt) Secondary ID(s) of Target Chain>
Q4ZFX9,Q53QQ6,Q53RZ4,Q59FI3,Q9Y4K6

> <UniProt (SwissProt) Alternative ID(s) of Target Chain>


> <UniProt (TrEMBL) Submitted Name of Target Chain>


> <UniProt (TrEMBL) Entry Name of Target Chain>


> <UniProt (TrEMBL) Primary ID of Target Chain>


> <UniProt (TrEMBL) Secondary ID(s) of Target Chain>


> <UniProt (TrEMBL) Alternative ID(s) of Target Chain>


$$$$
00289001.cdx
  Mrv0541 10181809492D          

 36 39  0  0  0  0            999 V2000
   -3.6544    1.9115    0.0000 C   0  0  0  0  0  0  0  0  0  0  0  0
   -3.6544    1.0865    0.0000 C   0  0  0  0  0  0  0  0  0  0  0  0
   -2.9399    0.6740    0.0000 C   0  0  0  0  0  0  0  0  0  0  0  0
   -2.2254    1.0865    0.0000 C   0  0  0  0  0  0  0  0  0  0  0  0
   -2.2254    1.9115    0.0000 C   0  0  0  0  0  0  0  0  0  0  0  0
   -2.9399    2.3240    0.0000 C   0  0  0  0  0  0  0  0  0  0  0  0
   -1.5110    0.6740    0.0000 N   0  0  0  0  0  0  0  0  0  0  0  0
   -0.7965    1.0865    0.0000 C   0  0  0  0  0  0  0  0  0  0  0  0
   -0.7965    1.9115    0.0000 C   0  0  0  0  0  0  0  0  0  0  0  0
   -1.5110    2.3240    0.0000 S   0  0  0  0  0  0  0  0  0  0  0  0
   -1.5110   -0.1510    0.0000 C   0  0  0  0  0  0  0  0  0  0  0  0
   -0.0820    2.3240    0.0000 C   0  0  0  0  0  0  0  0  0  0  0  0
   -1.0985    3.0385    0.0000 O   0  0  0  0  0  0  0  0  0  0  0  0
   -2.0943    2.9074    0.0000 O   0  0  0  0  0  0  0  0  0  0  0  0
   -2.2254   -0.5635    0.0000 C   0  0  0  0  0  0  0  0  0  0  0  0
   -2.2254   -1.3885    0.0000 C   0  0  0  0  0  0  0  0  0  0  0  0
   -1.5110   -1.8010    0.0000 N   0  0  0  0  0  0  0  0  0  0  0  0
   -0.7965   -1.3885    0.0000 C   0  0  0  0  0  0  0  0  0  0  0  0
   -0.7965   -0.5635    0.0000 N   0  0  0  0  0  0  0  0  0  0  0  0
   -2.9399   -0.1510    0.0000 Cl  0  0  0  0  0  0  0  0  0  0  0  0
   -0.0820   -1.8010    0.0000 N   0  0  0  0  0  0  0  0  0  0  0  0
    0.6325   -1.3885    0.0000 C   0  0  0  0  0  0  0  0  0  0  0  0
    1.3469   -1.8010    0.0000 C   0  0  0  0  0  0  0  0  0  0  0  0
    2.0614   -1.3885    0.0000 C   0  0  0  0  0  0  0  0  0  0  0  0
    2.0614   -0.5635    0.0000 C   0  0  0  0  0  0  0  0  0  0  0  0
    1.3469   -0.1510    0.0000 C   0  0  0  0  0  0  0  0  0  0  0  0
    0.6325   -0.5635    0.0000 C   0  0  0  0  0  0  0  0  0  0  0  0
    1.3469   -2.6260    0.0000 O   0  0  0  0  0  0  0  0  0  0  0  0
    2.0614   -3.0385    0.0000 C   0  0  0  0  0  0  0  0  0  0  0  0
    2.8294   -0.2621    0.0000 C   0  0  0  0  0  0  0  0  0  0  0  0
    3.0725    0.5263    0.0000 N   0  0  0  0  0  0  0  0  0  0  0  0
    2.6078    1.2079    0.0000 C   0  0  0  0  0  0  0  0  0  0  0  0
    1.7851    1.2696    0.0000 C   0  0  0  0  0  0  0  0  0  0  0  0
    1.2240    0.6648    0.0000 C   0  0  0  0  0  0  0  0  0  0  0  0
    3.6544   -0.2621    0.0000 C   0  0  0  0  0  0  0  0  0  0  0  0
    3.0429   -1.0590    0.0000 C   0  0  0  0  0  0  0  0  0  0  0  0
  1  2  4  0  0  0  0
  2  3  4  0  0  0  0
  3  4  4  0  0  0  0
  4  5  4  0  0  0  0
  5  6  4  0  0  0  0
  6  1  4  0  0  0  0
  4  7  1  0  0  0  0
  8  9  1  0  0  0  0
  9 10  1  0  0  0  0
 10  5  1  0  0  0  0
  7 11  1  0  0  0  0
  9 12  1  0  0  0  0
 10 13  2  0  0  0  0
 10 14  2  0  0  0  0
 11 15  4  0  0  0  0
 15 16  4  0  0  0  0
 16 17  4  0  0  0  0
 17 18  4  0  0  0  0
 18 19  4  0  0  0  0
 19 11  4  0  0  0  0
 15 20  1  0  0  0  0
 18 21  1  0  0  0  0
 21 22  1  0  0  0  0
 22 23  4  0  0  0  0
 23 24  4  0  0  0  0
 24 25  4  0  0  0  0
 25 26  4  0  0  0  0
 26 27  4  0  0  0  0
 27 22  4  0  0  0  0
 23 28  1  0  0  0  0
 28 29  1  0  0  0  0
 25 30  1  0  0  0  0
 30 31  1  0  0  0  0
 31 32  1  0  0  0  0
 32 33  1  0  0  0  0
 33 34  1  0  0  0  0
 34 26  1  0  0  0  0
 30 35  1  0  0  0  0
 30 36  1  0  0  0  0
M  END
> <From>
www.bindingDB.org

> <BindingDB Reactant_set_id>
490566

> <Ligand InChI>
InChI=1S/C26H32ClN5O3S/c1-16(2)36(33,34)23-11-7-6-10-20(23)30-24-19(27)15-28-25(32-24)31-21-13-17-9-8-12-29-26(3,4)18(17)14-22(21)35-5/h6-7,10-11,13-16,29H,8-9,12H2,1-5H3,(H2,28,30,31,32)

> <Ligand InChI Key>
WGGOSRGHQWBNLI-UHFFFAOYSA-N

> <BindingDB MonomerID>
244096

> <BindingDB Ligand Name>
5-chloro-N4-(2-(isopropylsulfonyl)phenyl)-N2-(8-methoxy-1,1-dimethyl-2,3,4,5-tetrahydro-1H-benzo[c]azepin-7-yl)pyrimidine-2,4-diamine::US10053458, 104

> <Target Name Assigned by Curator or DataSource>
ALK tyrosine kinase receptor

> <Target Source Organism According to Curator or DataSource>
Homo sapiens

> <Ki (nM)>


> <IC50 (nM)>
<10.00

> <Kd (nM)>


> <EC50 (nM)>


> <kon (M-1-s-1)>


> <koff (s-1)>


> <pH>


> <Temp C>
25.00

> <Curation/DataSource>
US Patent

> <Article DOI>


> <PMID>


> <PubChem AID>


> <Patent Number>
US10053458

> <Authors>
Yun, CS; Kim, HR; Cho, SY; Jung, HJ; Lee, K; Chae, CH; Lee, CO; Park, CH; Kim, P; Hwang, JY; Ha, JD; Ahn, SJ

> <Institution>
KOREA RESEARCH INSTITUTE OF CHEMICAL TECHNOLOGY

> <Link to Ligand in BindingDB>
http://www.bindingdb.org/bind/chemsearch/marvin/MolStructure.jsp?monomerid=244096

> <Link to Ligand-Target Pair in BindingDB>
http://www.bindingdb.org/jsp/dbsearch/PrimarySearch_ki.jsp?energyterm=kJ/mole&tag=pol&polymerid=5809&target=ALK+tyrosine+kinase+receptor&column=ki&startPg=0&Increment=50&submit=Search

> <Link to Ligand-Target Pair in BindingDB>
http://www.bindingdb.org/jsp/dbsearch/PrimarySearch_ki.jsp?energyterm=kJ/mole&tag=r21&monomerid=244096&enzyme=ALK+tyrosine+kinase+receptor&column=ki&startPg=0&Increment=50&submit=Search

> <Ligand HET ID in PDB>


> <PDB ID(s) for Ligand-Target Complex>


> <PubChem CID>
129048480

> <PubChem SID>
376221876

> <ChEBI ID of Ligand>


> <ChEMBL ID of Ligand>


> <DrugBank ID of Ligand>


> <IUPHAR_GRAC ID of Ligand>


> <KEGG ID of Ligand>


> <ZINC ID of Ligand>


> <Number of Protein Chains in Target (>1 implies a multichain complex)>
1

> <BindingDB Target Chain Sequence>
MGAIGLLWLLPLLLSTAAVGSGMGTGQRAGSPAAGPPLQPREPLSYSRLQRKSLAVDFVVPSLFRVYARDLLLPPSSSELKAGRPEARGSLALDCAPLLRLLGPAPGVSWTAGSPAPAEARTLSRVLKGGSVRKLRRAKQLVLELGEEAILEGCVGPPGEAAVGLLQFNLSELFSWWIRQGEGRLRIRLMPEKKASEVGREGRLSAAIRASQPRLLFQIFGTGHSSLESPTNMPSPSPDYFTWNLTWIMKDSFPFLSHRSRYGLECSFDFPCELEYSPPLHDLRNQSWSWRRIPSEEASQMDLLDGPGAERSKEMPRGSFLLLNTSADSKHTILSPWMRSSSEHCTLAVSVHRHLQPSGRYIAQLLPHNEAAREILLMPTPGKHGWTVLQGRIGRPDNPFRVALEYISSGNRSLSAVDFFALKNCSEGTSPGSKMALQSSFTCWNGTVLQLGQACDFHQDCAQGEDESQMCRKLPVGFYCNFEDGFCGWTQGTLSPHTPQWQVRTLKDARFQDHQDHALLLSTTDVPASESATVTSATFPAPIKSSPCELRMSWLIRGVLRGNVSLVLVENKTGKEQGRMVWHVAAYEGLSLWQWMVLPLLDVSDRFWLQMVAWWGQGSRAIVAFDNISISLDCYLTISGEDKILQNTAPKSRNLFERNPNKELKPGENSPRQTPIFDPTVHWLFTTCGASGPHGPTQAQCNNAYQNSNLSVEVGSEGPLKGIQIWKVPATDTYSISGYGAAGGKGGKNTMMRSHGVSVLGIFNLEKDDMLYILVGQQGEDACPSTNQLIQKVCIGENNVIEEEIRVNRSVHEWAGGGGGGGGATYVFKMKDGVPVPLIIAAGGGGRAYGAKTDTFHPERLENNSSVLGLNGNSGAAGGGGGWNDNTSLLWAGKSLQEGATGGHSCPQAMKKWGWETRGGFGGGGGGCSSGGGGGGYIGGNAASNNDPEMDGEDGVSFISPLGILYTPALKVMEGHGEVNIKHYLNCSHCEVDECHMDPESHKVICFCDHGTVLAEDGVSCIVSPTPEPHLPLSLILSVVTSALVAALVLAFSGIMIVYRRKHQELQAMQMELQSPEYKLSKLRTSTIMTDYNPNYCFAGKTSSISDLKEVPRKNITLIRGLGHGAFGEVYEGQVSGMPNDPSPLQVAVKTLPEVCSEQDELDFLMEALIISKFNHQNIVRCIGVSLQSLPRFILLELMAGGDLKSFLRETRPRPSQPSSLAMLDLLHVARDIACGCQYLEENHFIHRDIAARNCLLTCPGPGRVAKIGDFGMARDIYRASYYRKGGCAMLPVKWMPPEAFMEGIFTSKTDTWSFGVLLWEIFSLGYMPYPSKSNQEVLEFVTSGGRMDPPKNCPGPVYRIMTQCWQHQPEDRPNFAIILERIEYCTQDPDVINTALPIEYGPLVEEEEKVPVRPKDPEGVPPLLVSQQAKREEERSPAAPPPLPTTSSGKAAKKPTAAEISVRVPRGPAVEGGHVNMAFSQSNPPSELHKVHGSRNKPTSLWNPTYGSWFTEKPTKKNNPIAKKEPHDRGNLGLEGSCTVPPNVATGRLPGASLLLEPSSLTANMKEVPLFRLRHFPCGNVNYGYQQQGLPLEAATAPGAGHYEDTILKSKNSMNQPGP

> <PDB ID(s) of Target Chain>
2XB7,2XBA,3AOX,5FTO,5FTQ,6E0R,6EBW,6EDL,6MX8

> <UniProt (SwissProt) Recommended Name of Target Chain>
ALK tyrosine kinase receptor

> <UniProt (SwissProt) Entry Name of Target Chain>
ALK_HUMAN

> <UniProt (SwissProt) Primary ID of Target Chain>
Q9UM73

> <UniProt (SwissProt) Secondary ID(s) of Target Chain>
Q4ZFX9,Q53QQ6,Q53RZ4,Q59FI3,Q9Y4K6

> <UniProt (SwissProt) Alternative ID(s) of Target Chain>


> <UniProt (TrEMBL) Submitted Name of Target Chain>


> <UniProt (TrEMBL) Entry Name of Target Chain>


> <UniProt (TrEMBL) Primary ID of Target Chain>


> <UniProt (TrEMBL) Secondary ID(s) of Target Chain>


> <UniProt (TrEMBL) Alternative ID(s) of Target Chain>


$$$$
00290001.cdx
  Mrv0541 10181809492D          

 36 39  0  0  0  0            999 V2000
   -3.6544    1.9115    0.0000 C   0  0  0  0  0  0  0  0  0  0  0  0
   -3.6544    1.0865    0.0000 C   0  0  0  0  0  0  0  0  0  0  0  0
   -2.9399    0.6740    0.0000 C   0  0  0  0  0  0  0  0  0  0  0  0
   -2.2254    1.0865    0.0000 C   0  0  0  0  0  0  0  0  0  0  0  0
   -2.2254    1.9115    0.0000 C   0  0  0  0  0  0  0  0  0  0  0  0
   -2.9399    2.3240    0.0000 C   0  0  0  0  0  0  0  0  0  0  0  0
   -1.5110    0.6740    0.0000 N   0  0  0  0  0  0  0  0  0  0  0  0
   -0.7965    1.0865    0.0000 C   0  0  0  0  0  0  0  0  0  0  0  0
   -0.7965    1.9115    0.0000 C   0  0  0  0  0  0  0  0  0  0  0  0
   -1.5110    2.3240    0.0000 S   0  0  0  0  0  0  0  0  0  0  0  0
   -1.5110   -0.1510    0.0000 C   0  0  0  0  0  0  0  0  0  0  0  0
   -0.0820    2.3240    0.0000 C   0  0  0  0  0  0  0  0  0  0  0  0
   -1.0985    3.0385    0.0000 O   0  0  0  0  0  0  0  0  0  0  0  0
   -2.0943    2.9074    0.0000 O   0  0  0  0  0  0  0  0  0  0  0  0
   -2.2254   -0.5635    0.0000 C   0  0  0  0  0  0  0  0  0  0  0  0
   -2.2254   -1.3885    0.0000 C   0  0  0  0  0  0  0  0  0  0  0  0
   -1.5110   -1.8010    0.0000 N   0  0  0  0  0  0  0  0  0  0  0  0
   -0.7965   -1.3885    0.0000 C   0  0  0  0  0  0  0  0  0  0  0  0
   -0.7965   -0.5635    0.0000 N   0  0  0  0  0  0  0  0  0  0  0  0
   -2.9399   -0.1510    0.0000 Cl  0  0  0  0  0  0  0  0  0  0  0  0
   -0.0820   -1.8010    0.0000 N   0  0  0  0  0  0  0  0  0  0  0  0
    0.6325   -1.3885    0.0000 C   0  0  0  0  0  0  0  0  0  0  0  0
    1.3469   -1.8010    0.0000 C   0  0  0  0  0  0  0  0  0  0  0  0
    2.0614   -1.3885    0.0000 C   0  0  0  0  0  0  0  0  0  0  0  0
    2.0614   -0.5635    0.0000 C   0  0  0  0  0  0  0  0  0  0  0  0
    1.3469   -0.1510    0.0000 C   0  0  0  0  0  0  0  0  0  0  0  0
    0.6325   -0.5635    0.0000 C   0  0  0  0  0  0  0  0  0  0  0  0
    1.3469   -2.6260    0.0000 O   0  0  0  0  0  0  0  0  0  0  0  0
    2.0614   -3.0385    0.0000 C   0  0  0  0  0  0  0  0  0  0  0  0
    2.8294   -0.2621    0.0000 C   0  0  0  0  0  0  0  0  0  0  0  0
    3.0725    0.5263    0.0000 C   0  0  0  0  0  0  0  0  0  0  0  0
    2.6078    1.2079    0.0000 N   0  0  0  0  0  0  0  0  0  0  0  0
    1.7851    1.2696    0.0000 C   0  0  0  0  0  0  0  0  0  0  0  0
    1.2240    0.6648    0.0000 C   0  0  0  0  0  0  0  0  0  0  0  0
    3.6544   -0.2621    0.0000 C   0  0  0  0  0  0  0  0  0  0  0  0
    3.0429   -1.0590    0.0000 C   0  0  0  0  0  0  0  0  0  0  0  0
  1  2  4  0  0  0  0
  2  3  4  0  0  0  0
  3  4  4  0  0  0  0
  4  5  4  0  0  0  0
  5  6  4  0  0  0  0
  6  1  4  0  0  0  0
  4  7  1  0  0  0  0
  8  9  1  0  0  0  0
  9 10  1  0  0  0  0
 10  5  1  0  0  0  0
  7 11  1  0  0  0  0
  9 12  1  0  0  0  0
 10 13  2  0  0  0  0
 10 14  2  0  0  0  0
 11 15  4  0  0  0  0
 15 16  4  0  0  0  0
 16 17  4  0  0  0  0
 17 18  4  0  0  0  0
 18 19  4  0  0  0  0
 19 11  4  0  0  0  0
 15 20  1  0  0  0  0
 18 21  1  0  0  0  0
 21 22  1  0  0  0  0
 22 23  4  0  0  0  0
 23 24  4  0  0  0  0
 24 25  4  0  0  0  0
 25 26  4  0  0  0  0
 26 27  4  0  0  0  0
 27 22  4  0  0  0  0
 23 28  1  0  0  0  0
 28 29  1  0  0  0  0
 25 30  1  0  0  0  0
 30 31  1  0  0  0  0
 31 32  1  0  0  0  0
 32 33  1  0  0  0  0
 33 34  1  0  0  0  0
 34 26  1  0  0  0  0
 30 35  1  0  0  0  0
 30 36  1  0  0  0  0
M  END
> <From>
www.bindingDB.org

> <BindingDB Reactant_set_id>
490568

> <Ligand InChI>
InChI=1S/C26H32ClN5O3S/c1-16(2)36(33,34)23-9-7-6-8-20(23)30-24-19(27)14-29-25(32-24)31-21-12-17-10-11-28-15-26(3,4)18(17)13-22(21)35-5/h6-9,12-14,16,28H,10-11,15H2,1-5H3,(H2,29,30,31,32)

> <Ligand InChI Key>
KNNKLKCAIGWVJK-UHFFFAOYSA-N

> <BindingDB MonomerID>
244097

> <BindingDB Ligand Name>
5-chloro-N4-(2-(isopropylsulfonyl)phenyl)-N2-(8-methoxy-1,1-dimethyl-2,3,4,5-tetrahydro-1H-benzo[d]azepin-7-yl)pyrimidine-2,4-diamine::US10053458, 105

> <Target Name Assigned by Curator or DataSource>
ALK tyrosine kinase receptor

> <Target Source Organism According to Curator or DataSource>
Homo sapiens

> <Ki (nM)>


> <IC50 (nM)>
<10.00

> <Kd (nM)>


> <EC50 (nM)>


> <kon (M-1-s-1)>


> <koff (s-1)>


> <pH>


> <Temp C>
25.00

> <Curation/DataSource>
US Patent

> <Article DOI>


> <PMID>


> <PubChem AID>


> <Patent Number>
US10053458

> <Authors>
Yun, CS; Kim, HR; Cho, SY; Jung, HJ; Lee, K; Chae, CH; Lee, CO; Park, CH; Kim, P; Hwang, JY; Ha, JD; Ahn, SJ

> <Institution>
KOREA RESEARCH INSTITUTE OF CHEMICAL TECHNOLOGY

> <Link to Ligand in BindingDB>
http://www.bindingdb.org/bind/chemsearch/marvin/MolStructure.jsp?monomerid=244097

> <Link to Ligand-Target Pair in BindingDB>
http://www.bindingdb.org/jsp/dbsearch/PrimarySearch_ki.jsp?energyterm=kJ/mole&tag=pol&polymerid=5809&target=ALK+tyrosine+kinase+receptor&column=ki&startPg=0&Increment=50&submit=Search

> <Link to Ligand-Target Pair in BindingDB>
http://www.bindingdb.org/jsp/dbsearch/PrimarySearch_ki.jsp?energyterm=kJ/mole&tag=r21&monomerid=244097&enzyme=ALK+tyrosine+kinase+receptor&column=ki&startPg=0&Increment=50&submit=Search

> <Ligand HET ID in PDB>


> <PDB ID(s) for Ligand-Target Complex>


> <PubChem CID>
129048517

> <PubChem SID>
376221877

> <ChEBI ID of Ligand>


> <ChEMBL ID of Ligand>


> <DrugBank ID of Ligand>


> <IUPHAR_GRAC ID of Ligand>


> <KEGG ID of Ligand>


> <ZINC ID of Ligand>


> <Number of Protein Chains in Target (>1 implies a multichain complex)>
1

> <BindingDB Target Chain Sequence>
MGAIGLLWLLPLLLSTAAVGSGMGTGQRAGSPAAGPPLQPREPLSYSRLQRKSLAVDFVVPSLFRVYARDLLLPPSSSELKAGRPEARGSLALDCAPLLRLLGPAPGVSWTAGSPAPAEARTLSRVLKGGSVRKLRRAKQLVLELGEEAILEGCVGPPGEAAVGLLQFNLSELFSWWIRQGEGRLRIRLMPEKKASEVGREGRLSAAIRASQPRLLFQIFGTGHSSLESPTNMPSPSPDYFTWNLTWIMKDSFPFLSHRSRYGLECSFDFPCELEYSPPLHDLRNQSWSWRRIPSEEASQMDLLDGPGAERSKEMPRGSFLLLNTSADSKHTILSPWMRSSSEHCTLAVSVHRHLQPSGRYIAQLLPHNEAAREILLMPTPGKHGWTVLQGRIGRPDNPFRVALEYISSGNRSLSAVDFFALKNCSEGTSPGSKMALQSSFTCWNGTVLQLGQACDFHQDCAQGEDESQMCRKLPVGFYCNFEDGFCGWTQGTLSPHTPQWQVRTLKDARFQDHQDHALLLSTTDVPASESATVTSATFPAPIKSSPCELRMSWLIRGVLRGNVSLVLVENKTGKEQGRMVWHVAAYEGLSLWQWMVLPLLDVSDRFWLQMVAWWGQGSRAIVAFDNISISLDCYLTISGEDKILQNTAPKSRNLFERNPNKELKPGENSPRQTPIFDPTVHWLFTTCGASGPHGPTQAQCNNAYQNSNLSVEVGSEGPLKGIQIWKVPATDTYSISGYGAAGGKGGKNTMMRSHGVSVLGIFNLEKDDMLYILVGQQGEDACPSTNQLIQKVCIGENNVIEEEIRVNRSVHEWAGGGGGGGGATYVFKMKDGVPVPLIIAAGGGGRAYGAKTDTFHPERLENNSSVLGLNGNSGAAGGGGGWNDNTSLLWAGKSLQEGATGGHSCPQAMKKWGWETRGGFGGGGGGCSSGGGGGGYIGGNAASNNDPEMDGEDGVSFISPLGILYTPALKVMEGHGEVNIKHYLNCSHCEVDECHMDPESHKVICFCDHGTVLAEDGVSCIVSPTPEPHLPLSLILSVVTSALVAALVLAFSGIMIVYRRKHQELQAMQMELQSPEYKLSKLRTSTIMTDYNPNYCFAGKTSSISDLKEVPRKNITLIRGLGHGAFGEVYEGQVSGMPNDPSPLQVAVKTLPEVCSEQDELDFLMEALIISKFNHQNIVRCIGVSLQSLPRFILLELMAGGDLKSFLRETRPRPSQPSSLAMLDLLHVARDIACGCQYLEENHFIHRDIAARNCLLTCPGPGRVAKIGDFGMARDIYRASYYRKGGCAMLPVKWMPPEAFMEGIFTSKTDTWSFGVLLWEIFSLGYMPYPSKSNQEVLEFVTSGGRMDPPKNCPGPVYRIMTQCWQHQPEDRPNFAIILERIEYCTQDPDVINTALPIEYGPLVEEEEKVPVRPKDPEGVPPLLVSQQAKREEERSPAAPPPLPTTSSGKAAKKPTAAEISVRVPRGPAVEGGHVNMAFSQSNPPSELHKVHGSRNKPTSLWNPTYGSWFTEKPTKKNNPIAKKEPHDRGNLGLEGSCTVPPNVATGRLPGASLLLEPSSLTANMKEVPLFRLRHFPCGNVNYGYQQQGLPLEAATAPGAGHYEDTILKSKNSMNQPGP

> <PDB ID(s) of Target Chain>
2XB7,2XBA,3AOX,5FTO,5FTQ,6E0R,6EBW,6EDL,6MX8

> <UniProt (SwissProt) Recommended Name of Target Chain>
ALK tyrosine kinase receptor

> <UniProt (SwissProt) Entry Name of Target Chain>
ALK_HUMAN

> <UniProt (SwissProt) Primary ID of Target Chain>
Q9UM73

> <UniProt (SwissProt) Secondary ID(s) of Target Chain>
Q4ZFX9,Q53QQ6,Q53RZ4,Q59FI3,Q9Y4K6

> <UniProt (SwissProt) Alternative ID(s) of Target Chain>


> <UniProt (TrEMBL) Submitted Name of Target Chain>


> <UniProt (TrEMBL) Entry Name of Target Chain>


> <UniProt (TrEMBL) Primary ID of Target Chain>


> <UniProt (TrEMBL) Secondary ID(s) of Target Chain>


> <UniProt (TrEMBL) Alternative ID(s) of Target Chain>


$$$$
00292001.cdx
  Mrv0541 10181809492D          

 34 37  0  0  0  0            999 V2000
   -3.5629    1.9115    0.0000 C   0  0  0  0  0  0  0  0  0  0  0  0
   -3.5629    1.0865    0.0000 C   0  0  0  0  0  0  0  0  0  0  0  0
   -2.8484    0.6740    0.0000 C   0  0  0  0  0  0  0  0  0  0  0  0
   -2.1339    1.0865    0.0000 C   0  0  0  0  0  0  0  0  0  0  0  0
   -2.1339    1.9115    0.0000 C   0  0  0  0  0  0  0  0  0  0  0  0
   -2.8484    2.3240    0.0000 C   0  0  0  0  0  0  0  0  0  0  0  0
   -1.4195    0.6740    0.0000 N   0  0  0  0  0  0  0  0  0  0  0  0
   -0.7050    1.0865    0.0000 C   0  0  0  0  0  0  0  0  0  0  0  0
   -0.7050    1.9115    0.0000 C   0  0  0  0  0  0  0  0  0  0  0  0
   -1.4195    2.3240    0.0000 S   0  0  0  0  0  0  0  0  0  0  0  0
   -1.4195   -0.1510    0.0000 C   0  0  0  0  0  0  0  0  0  0  0  0
    0.0095    2.3240    0.0000 C   0  0  0  0  0  0  0  0  0  0  0  0
   -1.0070    3.0385    0.0000 O   0  0  0  0  0  0  0  0  0  0  0  0
   -2.0028    2.9074    0.0000 O   0  0  0  0  0  0  0  0  0  0  0  0
   -2.1339   -0.5635    0.0000 C   0  0  0  0  0  0  0  0  0  0  0  0
   -2.1339   -1.3885    0.0000 C   0  0  0  0  0  0  0  0  0  0  0  0
   -1.4195   -1.8010    0.0000 N   0  0  0  0  0  0  0  0  0  0  0  0
   -0.7050   -1.3885    0.0000 C   0  0  0  0  0  0  0  0  0  0  0  0
   -0.7050   -0.5635    0.0000 N   0  0  0  0  0  0  0  0  0  0  0  0
   -2.8484   -0.1510    0.0000 Cl  0  0  0  0  0  0  0  0  0  0  0  0
    0.0095   -1.8010    0.0000 N   0  0  0  0  0  0  0  0  0  0  0  0
    0.7240   -1.3885    0.0000 C   0  0  0  0  0  0  0  0  0  0  0  0
    1.4384   -1.8010    0.0000 C   0  0  0  0  0  0  0  0  0  0  0  0
    2.1529   -1.3885    0.0000 C   0  0  0  0  0  0  0  0  0  0  0  0
    2.1529   -0.5635    0.0000 C   0  0  0  0  0  0  0  0  0  0  0  0
    1.4384   -0.1510    0.0000 C   0  0  0  0  0  0  0  0  0  0  0  0
    0.7240   -0.5635    0.0000 C   0  0  0  0  0  0  0  0  0  0  0  0
    1.4384   -2.6260    0.0000 O   0  0  0  0  0  0  0  0  0  0  0  0
    2.1529   -3.0385    0.0000 C   0  0  0  0  0  0  0  0  0  0  0  0
    2.7660   -0.0115    0.0000 C   0  0  0  0  0  0  0  0  0  0  0  0
    2.4304    0.7422    0.0000 N   0  0  0  0  0  0  0  0  0  0  0  0
    1.6099    0.6560    0.0000 C   0  0  0  0  0  0  0  0  0  0  0  0
    3.5629   -0.2250    0.0000 C   0  0  0  0  0  0  0  0  0  0  0  0
    3.3493    0.5719    0.0000 C   0  0  0  0  0  0  0  0  0  0  0  0
  1  2  4  0  0  0  0
  2  3  4  0  0  0  0
  3  4  4  0  0  0  0
  4  5  4  0  0  0  0
  5  6  4  0  0  0  0
  6  1  4  0  0  0  0
  4  7  1  0  0  0  0
  8  9  1  0  0  0  0
  9 10  1  0  0  0  0
 10  5  1  0  0  0  0
  7 11  1  0  0  0  0
  9 12  1  0  0  0  0
 10 13  2  0  0  0  0
 10 14  2  0  0  0  0
 11 15  4  0  0  0  0
 15 16  4  0  0  0  0
 16 17  4  0  0  0  0
 17 18  4  0  0  0  0
 18 19  4  0  0  0  0
 19 11  4  0  0  0  0
 15 20  1  0  0  0  0
 18 21  1  0  0  0  0
 21 22  1  0  0  0  0
 22 23  4  0  0  0  0
 23 24  4  0  0  0  0
 24 25  4  0  0  0  0
 25 26  4  0  0  0  0
 26 27  4  0  0  0  0
 27 22  4  0  0  0  0
 23 28  1  0  0  0  0
 28 29  1  0  0  0  0
 25 30  1  0  0  0  0
 30 31  1  0  0  0  0
 31 32  1  0  0  0  0
 32 26  1  0  0  0  0
 30 33  1  0  0  0  0
 30 34  1  0  0  0  0
M  END
> <From>
www.bindingDB.org

> <BindingDB Reactant_set_id>
490570

> <Ligand InChI>
InChI=1S/C24H28ClN5O3S/c1-14(2)34(31,32)21-9-7-6-8-18(21)28-22-17(25)13-26-23(30-22)29-19-10-15-12-27-24(3,4)16(15)11-20(19)33-5/h6-11,13-14,27H,12H2,1-5H3,(H2,26,28,29,30)

> <Ligand InChI Key>
IUTLFXJMUOTFTI-UHFFFAOYSA-N

> <BindingDB MonomerID>
244098

> <BindingDB Ligand Name>
5-chloro-N4-(2-(isopropylsulfonyl)phenyl)-N2-(6-methoxy-1,1-dimethylisoindolin-5-yl)pyrimidine-2,4-diamine::US10053458, 106

> <Target Name Assigned by Curator or DataSource>
ALK tyrosine kinase receptor

> <Target Source Organism According to Curator or DataSource>
Homo sapiens

> <Ki (nM)>


> <IC50 (nM)>
<10.00

> <Kd (nM)>


> <EC50 (nM)>


> <kon (M-1-s-1)>


> <koff (s-1)>


> <pH>


> <Temp C>
25.00

> <Curation/DataSource>
US Patent

> <Article DOI>


> <PMID>


> <PubChem AID>


> <Patent Number>
US10053458

> <Authors>
Yun, CS; Kim, HR; Cho, SY; Jung, HJ; Lee, K; Chae, CH; Lee, CO; Park, CH; Kim, P; Hwang, JY; Ha, JD; Ahn, SJ

> <Institution>
KOREA RESEARCH INSTITUTE OF CHEMICAL TECHNOLOGY

> <Link to Ligand in BindingDB>
http://www.bindingdb.org/bind/chemsearch/marvin/MolStructure.jsp?monomerid=244098

> <Link to Ligand-Target Pair in BindingDB>
http://www.bindingdb.org/jsp/dbsearch/PrimarySearch_ki.jsp?energyterm=kJ/mole&tag=pol&polymerid=5809&target=ALK+tyrosine+kinase+receptor&column=ki&startPg=0&Increment=50&submit=Search

> <Link to Ligand-Target Pair in BindingDB>
http://www.bindingdb.org/jsp/dbsearch/PrimarySearch_ki.jsp?energyterm=kJ/mole&tag=r21&monomerid=244098&enzyme=ALK+tyrosine+kinase+receptor&column=ki&startPg=0&Increment=50&submit=Search

> <Ligand HET ID in PDB>


> <PDB ID(s) for Ligand-Target Complex>


> <PubChem CID>
129048504

> <PubChem SID>
376221878

> <ChEBI ID of Ligand>


> <ChEMBL ID of Ligand>


> <DrugBank ID of Ligand>


> <IUPHAR_GRAC ID of Ligand>


> <KEGG ID of Ligand>


> <ZINC ID of Ligand>


> <Number of Protein Chains in Target (>1 implies a multichain complex)>
1

> <BindingDB Target Chain Sequence>
MGAIGLLWLLPLLLSTAAVGSGMGTGQRAGSPAAGPPLQPREPLSYSRLQRKSLAVDFVVPSLFRVYARDLLLPPSSSELKAGRPEARGSLALDCAPLLRLLGPAPGVSWTAGSPAPAEARTLSRVLKGGSVRKLRRAKQLVLELGEEAILEGCVGPPGEAAVGLLQFNLSELFSWWIRQGEGRLRIRLMPEKKASEVGREGRLSAAIRASQPRLLFQIFGTGHSSLESPTNMPSPSPDYFTWNLTWIMKDSFPFLSHRSRYGLECSFDFPCELEYSPPLHDLRNQSWSWRRIPSEEASQMDLLDGPGAERSKEMPRGSFLLLNTSADSKHTILSPWMRSSSEHCTLAVSVHRHLQPSGRYIAQLLPHNEAAREILLMPTPGKHGWTVLQGRIGRPDNPFRVALEYISSGNRSLSAVDFFALKNCSEGTSPGSKMALQSSFTCWNGTVLQLGQACDFHQDCAQGEDESQMCRKLPVGFYCNFEDGFCGWTQGTLSPHTPQWQVRTLKDARFQDHQDHALLLSTTDVPASESATVTSATFPAPIKSSPCELRMSWLIRGVLRGNVSLVLVENKTGKEQGRMVWHVAAYEGLSLWQWMVLPLLDVSDRFWLQMVAWWGQGSRAIVAFDNISISLDCYLTISGEDKILQNTAPKSRNLFERNPNKELKPGENSPRQTPIFDPTVHWLFTTCGASGPHGPTQAQCNNAYQNSNLSVEVGSEGPLKGIQIWKVPATDTYSISGYGAAGGKGGKNTMMRSHGVSVLGIFNLEKDDMLYILVGQQGEDACPSTNQLIQKVCIGENNVIEEEIRVNRSVHEWAGGGGGGGGATYVFKMKDGVPVPLIIAAGGGGRAYGAKTDTFHPERLENNSSVLGLNGNSGAAGGGGGWNDNTSLLWAGKSLQEGATGGHSCPQAMKKWGWETRGGFGGGGGGCSSGGGGGGYIGGNAASNNDPEMDGEDGVSFISPLGILYTPALKVMEGHGEVNIKHYLNCSHCEVDECHMDPESHKVICFCDHGTVLAEDGVSCIVSPTPEPHLPLSLILSVVTSALVAALVLAFSGIMIVYRRKHQELQAMQMELQSPEYKLSKLRTSTIMTDYNPNYCFAGKTSSISDLKEVPRKNITLIRGLGHGAFGEVYEGQVSGMPNDPSPLQVAVKTLPEVCSEQDELDFLMEALIISKFNHQNIVRCIGVSLQSLPRFILLELMAGGDLKSFLRETRPRPSQPSSLAMLDLLHVARDIACGCQYLEENHFIHRDIAARNCLLTCPGPGRVAKIGDFGMARDIYRASYYRKGGCAMLPVKWMPPEAFMEGIFTSKTDTWSFGVLLWEIFSLGYMPYPSKSNQEVLEFVTSGGRMDPPKNCPGPVYRIMTQCWQHQPEDRPNFAIILERIEYCTQDPDVINTALPIEYGPLVEEEEKVPVRPKDPEGVPPLLVSQQAKREEERSPAAPPPLPTTSSGKAAKKPTAAEISVRVPRGPAVEGGHVNMAFSQSNPPSELHKVHGSRNKPTSLWNPTYGSWFTEKPTKKNNPIAKKEPHDRGNLGLEGSCTVPPNVATGRLPGASLLLEPSSLTANMKEVPLFRLRHFPCGNVNYGYQQQGLPLEAATAPGAGHYEDTILKSKNSMNQPGP

> <PDB ID(s) of Target Chain>
2XB7,2XBA,3AOX,5FTO,5FTQ,6E0R,6EBW,6EDL,6MX8

> <UniProt (SwissProt) Recommended Name of Target Chain>
ALK tyrosine kinase receptor

> <UniProt (SwissProt) Entry Name of Target Chain>
ALK_HUMAN

> <UniProt (SwissProt) Primary ID of Target Chain>
Q9UM73

> <UniProt (SwissProt) Secondary ID(s) of Target Chain>
Q4ZFX9,Q53QQ6,Q53RZ4,Q59FI3,Q9Y4K6

> <UniProt (SwissProt) Alternative ID(s) of Target Chain>


> <UniProt (TrEMBL) Submitted Name of Target Chain>


> <UniProt (TrEMBL) Entry Name of Target Chain>


> <UniProt (TrEMBL) Primary ID of Target Chain>


> <UniProt (TrEMBL) Secondary ID(s) of Target Chain>


> <UniProt (TrEMBL) Alternative ID(s) of Target Chain>


$$$$
00052001.cdx
  Mrv0541 01191905252D          

 37 40  0  0  0  0            999 V2000
   -2.6846  -13.1461    0.0000 C   0  0  0  0  0  0  0  0  0  0  0  0
   -2.6846  -13.9712    0.0000 C   0  0  0  0  0  0  0  0  0  0  0  0
   -1.9701  -14.3837    0.0000 C   0  0  0  0  0  0  0  0  0  0  0  0
   -1.2557  -13.9712    0.0000 C   0  0  0  0  0  0  0  0  0  0  0  0
   -1.2557  -13.1461    0.0000 N   0  0  0  0  0  0  0  0  0  0  0  0
   -1.9701  -12.7337    0.0000 C   0  0  0  0  0  0  0  0  0  0  0  0
   -3.3991  -14.3837    0.0000 N   0  0  0  0  0  0  0  0  0  0  0  0
   -4.1137  -13.9712    0.0000 C   0  0  0  0  0  0  0  0  0  0  0  0
   -3.3991  -15.2087    0.0000 C   0  0  0  0  0  0  0  0  0  0  0  0
   -0.5412  -12.7337    0.0000 C   0  0  0  0  0  0  0  0  0  0  0  0
    0.1733  -13.1461    0.0000 C   0  0  0  0  0  0  0  0  0  0  0  0
    0.8878  -12.7337    0.0000 C   0  0  0  0  0  0  0  0  0  0  0  0
    0.8878  -11.9087    0.0000 C   0  0  0  0  0  0  0  0  0  0  0  0
    0.1733  -11.4961    0.0000 C   0  0  0  0  0  0  0  0  0  0  0  0
   -0.5412  -11.9087    0.0000 C   0  0  0  0  0  0  0  0  0  0  0  0
    1.6022  -13.1461    0.0000 O   0  0  0  0  0  0  0  0  0  0  0  0
    1.6022  -13.9712    0.0000 C   0  0  0  0  0  0  0  0  0  0  0  0
    1.6022  -11.4961    0.0000 N   0  0  0  0  0  0  0  0  0  0  0  0
    2.3167  -11.9087    0.0000 C   0  0  0  0  0  0  0  0  0  0  0  0
    2.3167  -12.7337    0.0000 N   0  0  0  0  0  0  0  0  0  0  0  0
    3.0312  -13.1461    0.0000 C   0  0  0  0  0  0  0  0  0  0  0  0
    3.7457  -12.7337    0.0000 C   0  0  0  0  0  0  0  0  0  0  0  0
    3.7457  -11.9087    0.0000 C   0  0  0  0  0  0  0  0  0  0  0  0
    3.0312  -11.4961    0.0000 N   0  0  0  0  0  0  0  0  0  0  0  0
    4.4601  -13.1461    0.0000 Cl  0  0  0  0  0  0  0  0  0  0  0  0
    5.1746  -12.7337    0.0000 C   0  0  0  0  0  0  0  0  0  0  0  0
    5.1746  -11.9087    0.0000 C   0  0  0  0  0  0  0  0  0  0  0  0
    4.4601  -11.4961    0.0000 N   0  0  0  0  0  0  0  0  0  0  0  0
    5.8892  -13.1461    0.0000 C   0  0  0  0  0  0  0  0  0  0  0  0
    6.6037  -12.7337    0.0000 C   0  0  0  0  0  0  0  0  0  0  0  0
    6.6037  -11.9087    0.0000 C   0  0  0  0  0  0  0  0  0  0  0  0
    5.8892  -11.4961    0.0000 C   0  0  0  0  0  0  0  0  0  0  0  0
    5.8892  -10.6711    0.0000 C   0  0  0  0  0  0  0  0  0  0  0  0
    6.6037  -10.2585    0.0000 C   0  0  0  0  0  0  0  0  0  0  0  0
    5.1746  -10.2585    0.0000 O   0  0  0  0  0  0  0  0  0  0  0  0
    6.6037   -9.4335    0.0000 O   0  0  0  0  0  0  0  0  0  0  0  0
    7.3182  -10.6711    0.0000 N   0  0  0  0  0  0  0  0  0  0  0  0
  1  2  1  0  0  0  0
  2  3  1  0  0  0  0
  3  4  1  0  0  0  0
  4  5  1  0  0  0  0
  5  6  1  0  0  0  0
  6  1  1  0  0  0  0
  2  7  1  0  0  0  0
  7  8  1  0  0  0  0
  7  9  1  0  0  0  0
  5 10  1  0  0  0  0
 10 11  4  0  0  0  0
 11 12  4  0  0  0  0
 12 13  4  0  0  0  0
 13 14  4  0  0  0  0
 14 15  4  0  0  0  0
 15 10  4  0  0  0  0
 12 16  1  0  0  0  0
 13 18  1  0  0  0  0
 16 17  1  0  0  0  0
 18 19  1  0  0  0  0
 19 20  4  0  0  0  0
 20 21  4  0  0  0  0
 21 22  4  0  0  0  0
 22 23  4  0  0  0  0
 23 24  4  0  0  0  0
 24 19  4  0  0  0  0
 22 25  1  0  0  0  0
 26 27  4  0  0  0  0
 27 28  1  0  0  0  0
 28 23  1  0  0  0  0
 26 29  4  0  0  0  0
 29 30  4  0  0  0  0
 30 31  4  0  0  0  0
 31 32  4  0  0  0  0
 32 27  4  0  0  0  0
 32 33  1  0  0  0  0
 33 34  1  0  0  0  0
 33 35  2  0  0  0  0
 34 36  2  0  0  0  0
 34 37  1  0  0  0  0
M  END
> <From>
www.bindingDB.org

> <BindingDB Reactant_set_id>
511914

> <Ligand InChI>
InChI=1S/C26H30ClN7O3/c1-33(2)16-10-12-34(13-11-16)17-8-9-21(22(14-17)37-3)31-26-29-15-19(27)25(32-26)30-20-7-5-4-6-18(20)23(35)24(28)36/h4-9,14-16H,10-13H2,1-3H3,(H2,28,36)(H2,29,30,31,32)

> <Ligand InChI Key>
AMSONZZHZCNUHV-UHFFFAOYSA-N

> <BindingDB MonomerID>
270538

> <BindingDB Ligand Name>
US10059688, Example 4::US9783524, Example 4

> <Target Name Assigned by Curator or DataSource>
ALK tyrosine kinase receptor

> <Target Source Organism According to Curator or DataSource>
Homo sapiens

> <Ki (nM)>


> <IC50 (nM)>
 28

> <Kd (nM)>


> <EC50 (nM)>


> <kon (M-1-s-1)>


> <koff (s-1)>


> <pH>


> <Temp C>


> <Curation/DataSource>
US Patent

> <Article DOI>
10.1021/jm0508282

> <PMID>


> <PubChem AID>


> <Patent Number>
US10059688

> <Authors>
Hu, S; Liu, X; Bai, J; Long, W

> <Institution>
BETTA PHARMACEUTICALS CO., LTD.

> <Link to Ligand in BindingDB>
http://www.bindingdb.org/bind/chemsearch/marvin/MolStructure.jsp?monomerid=270538

> <Link to Ligand-Target Pair in BindingDB>
http://www.bindingdb.org/jsp/dbsearch/PrimarySearch_ki.jsp?energyterm=kJ/mole&tag=pol&polymerid=5809&target=ALK+tyrosine+kinase+receptor&column=ki&startPg=0&Increment=50&submit=Search

> <Link to Ligand-Target Pair in BindingDB>
http://www.bindingdb.org/jsp/dbsearch/PrimarySearch_ki.jsp?energyterm=kJ/mole&tag=r21&monomerid=270538&enzyme=ALK+tyrosine+kinase+receptor&column=ki&startPg=0&Increment=50&submit=Search

> <Ligand HET ID in PDB>


> <PDB ID(s) for Ligand-Target Complex>


> <PubChem CID>
87055587

> <PubChem SID>
378152421

> <ChEBI ID of Ligand>


> <ChEMBL ID of Ligand>


> <DrugBank ID of Ligand>


> <IUPHAR_GRAC ID of Ligand>


> <KEGG ID of Ligand>


> <ZINC ID of Ligand>


> <Number of Protein Chains in Target (>1 implies a multichain complex)>
1

> <BindingDB Target Chain Sequence>
MGAIGLLWLLPLLLSTAAVGSGMGTGQRAGSPAAGPPLQPREPLSYSRLQRKSLAVDFVVPSLFRVYARDLLLPPSSSELKAGRPEARGSLALDCAPLLRLLGPAPGVSWTAGSPAPAEARTLSRVLKGGSVRKLRRAKQLVLELGEEAILEGCVGPPGEAAVGLLQFNLSELFSWWIRQGEGRLRIRLMPEKKASEVGREGRLSAAIRASQPRLLFQIFGTGHSSLESPTNMPSPSPDYFTWNLTWIMKDSFPFLSHRSRYGLECSFDFPCELEYSPPLHDLRNQSWSWRRIPSEEASQMDLLDGPGAERSKEMPRGSFLLLNTSADSKHTILSPWMRSSSEHCTLAVSVHRHLQPSGRYIAQLLPHNEAAREILLMPTPGKHGWTVLQGRIGRPDNPFRVALEYISSGNRSLSAVDFFALKNCSEGTSPGSKMALQSSFTCWNGTVLQLGQACDFHQDCAQGEDESQMCRKLPVGFYCNFEDGFCGWTQGTLSPHTPQWQVRTLKDARFQDHQDHALLLSTTDVPASESATVTSATFPAPIKSSPCELRMSWLIRGVLRGNVSLVLVENKTGKEQGRMVWHVAAYEGLSLWQWMVLPLLDVSDRFWLQMVAWWGQGSRAIVAFDNISISLDCYLTISGEDKILQNTAPKSRNLFERNPNKELKPGENSPRQTPIFDPTVHWLFTTCGASGPHGPTQAQCNNAYQNSNLSVEVGSEGPLKGIQIWKVPATDTYSISGYGAAGGKGGKNTMMRSHGVSVLGIFNLEKDDMLYILVGQQGEDACPSTNQLIQKVCIGENNVIEEEIRVNRSVHEWAGGGGGGGGATYVFKMKDGVPVPLIIAAGGGGRAYGAKTDTFHPERLENNSSVLGLNGNSGAAGGGGGWNDNTSLLWAGKSLQEGATGGHSCPQAMKKWGWETRGGFGGGGGGCSSGGGGGGYIGGNAASNNDPEMDGEDGVSFISPLGILYTPALKVMEGHGEVNIKHYLNCSHCEVDECHMDPESHKVICFCDHGTVLAEDGVSCIVSPTPEPHLPLSLILSVVTSALVAALVLAFSGIMIVYRRKHQELQAMQMELQSPEYKLSKLRTSTIMTDYNPNYCFAGKTSSISDLKEVPRKNITLIRGLGHGAFGEVYEGQVSGMPNDPSPLQVAVKTLPEVCSEQDELDFLMEALIISKFNHQNIVRCIGVSLQSLPRFILLELMAGGDLKSFLRETRPRPSQPSSLAMLDLLHVARDIACGCQYLEENHFIHRDIAARNCLLTCPGPGRVAKIGDFGMARDIYRASYYRKGGCAMLPVKWMPPEAFMEGIFTSKTDTWSFGVLLWEIFSLGYMPYPSKSNQEVLEFVTSGGRMDPPKNCPGPVYRIMTQCWQHQPEDRPNFAIILERIEYCTQDPDVINTALPIEYGPLVEEEEKVPVRPKDPEGVPPLLVSQQAKREEERSPAAPPPLPTTSSGKAAKKPTAAEISVRVPRGPAVEGGHVNMAFSQSNPPSELHKVHGSRNKPTSLWNPTYGSWFTEKPTKKNNPIAKKEPHDRGNLGLEGSCTVPPNVATGRLPGASLLLEPSSLTANMKEVPLFRLRHFPCGNVNYGYQQQGLPLEAATAPGAGHYEDTILKSKNSMNQPGP

> <PDB ID(s) of Target Chain>
2XB7,2XBA,3AOX,5FTO,5FTQ,6E0R,6EBW,6EDL,6MX8

> <UniProt (SwissProt) Recommended Name of Target Chain>
ALK tyrosine kinase receptor

> <UniProt (SwissProt) Entry Name of Target Chain>
ALK_HUMAN

> <UniProt (SwissProt) Primary ID of Target Chain>
Q9UM73

> <UniProt (SwissProt) Secondary ID(s) of Target Chain>
Q4ZFX9,Q53QQ6,Q53RZ4,Q59FI3,Q9Y4K6

> <UniProt (SwissProt) Alternative ID(s) of Target Chain>


> <UniProt (TrEMBL) Submitted Name of Target Chain>


> <UniProt (TrEMBL) Entry Name of Target Chain>


> <UniProt (TrEMBL) Primary ID of Target Chain>


> <UniProt (TrEMBL) Secondary ID(s) of Target Chain>


> <UniProt (TrEMBL) Alternative ID(s) of Target Chain>


$$$$
00135001.cdx
  Mrv0541 02211919242D          

 36 39  0  0  0  0            999 V2000
   -1.7862    1.6500    0.0000 C   0  0  0  0  0  0  0  0  0  0  0  0
   -1.7862    0.8250    0.0000 C   0  0  0  0  0  0  0  0  0  0  0  0
   -2.5006    0.4125    0.0000 C   0  0  0  0  0  0  0  0  0  0  0  0
   -3.2151    0.8250    0.0000 C   0  0  0  0  0  0  0  0  0  0  0  0
   -3.2151    1.6500    0.0000 C   0  0  0  0  0  0  0  0  0  0  0  0
   -2.5006    2.0625    0.0000 C   0  0  0  0  0  0  0  0  0  0  0  0
   -1.0717    2.0625    0.0000 S   0  0  0  0  0  0  0  0  0  0  0  0
   -1.4842    2.7770    0.0000 O   0  0  0  0  0  0  0  0  0  0  0  0
   -0.6592    1.3480    0.0000 O   0  0  0  0  0  0  0  0  0  0  0  0
   -0.3572    2.4750    0.0000 C   0  0  0  0  0  0  0  0  0  0  0  0
   -0.3572    3.3000    0.0000 C   0  0  0  0  0  0  0  0  0  0  0  0
    0.3572    2.0625    0.0000 C   0  0  0  0  0  0  0  0  0  0  0  0
   -1.0717    0.4125    0.0000 N   0  0  0  0  0  0  0  0  0  0  0  0
   -1.0717   -0.4125    0.0000 C   0  0  0  0  0  0  0  0  0  0  0  0
   -1.7862   -0.8250    0.0000 C   0  0  0  0  0  0  0  0  0  0  0  0
   -1.7862   -1.6500    0.0000 C   0  0  0  0  0  0  0  0  0  0  0  0
   -1.0717   -2.0625    0.0000 N   0  0  0  0  0  0  0  0  0  0  0  0
   -0.3572   -1.6500    0.0000 C   0  0  0  0  0  0  0  0  0  0  0  0
   -0.3572   -0.8250    0.0000 N   0  0  0  0  0  0  0  0  0  0  0  0
   -2.5006   -0.4125    0.0000 Cl  0  0  0  0  0  0  0  0  0  0  0  0
    0.3572   -2.0625    0.0000 N   0  0  0  0  0  0  0  0  0  0  0  0
    1.0717   -1.6500    0.0000 C   0  0  0  0  0  0  0  0  0  0  0  0
    1.0717   -0.8250    0.0000 C   0  0  0  0  0  0  0  0  0  0  0  0
    1.7862   -2.0625    0.0000 C   0  0  0  0  0  0  0  0  0  0  0  0
    2.5006   -1.6500    0.0000 C   0  0  0  0  0  0  0  0  0  0  0  0
    2.5006   -0.8250    0.0000 C   0  0  0  0  0  0  0  0  0  0  0  0
    1.7862   -0.4125    0.0000 C   0  0  0  0  0  0  0  0  0  0  0  0
    1.7862   -2.8875    0.0000 O   0  0  0  0  0  0  0  0  0  0  0  0
    2.5006   -3.3000    0.0000 C   0  0  0  0  0  0  0  0  0  0  0  0
    1.7862    0.4125    0.0000 C   0  0  0  0  0  0  0  0  0  0  0  0
    1.7862    1.2375    0.0000 C   0  0  0  0  0  0  0  0  0  0  0  0
    1.0016    1.4924    0.0000 C   0  0  0  0  0  0  0  0  0  0  0  0
    0.5166    0.8250    0.0000 C   0  0  0  0  0  0  0  0  0  0  0  0
    1.0016    0.1576    0.0000 C   0  0  0  0  0  0  0  0  0  0  0  0
    2.5006    0.8250    0.0000 C   0  0  0  0  0  0  0  0  0  0  0  0
    3.2151    0.4125    0.0000 N   0  0  0  0  0  0  0  0  0  0  0  0
  1  2  4  0  0  0  0
  2  3  4  0  0  0  0
  3  4  4  0  0  0  0
  4  5  4  0  0  0  0
  5  6  4  0  0  0  0
  6  1  4  0  0  0  0
  1  7  1  0  0  0  0
  7  8  2  0  0  0  0
  7  9  2  0  0  0  0
  7 10  1  0  0  0  0
 10 11  1  0  0  0  0
 10 12  1  0  0  0  0
  2 13  1  0  0  0  0
 13 14  1  0  0  0  0
 14 15  4  0  0  0  0
 15 16  4  0  0  0  0
 16 17  4  0  0  0  0
 17 18  4  0  0  0  0
 18 19  4  0  0  0  0
 19 14  4  0  0  0  0
 15 20  1  0  0  0  0
 18 21  1  0  0  0  0
 21 22  1  0  0  0  0
 22 23  4  0  0  0  0
 22 24  4  0  0  0  0
 24 25  4  0  0  0  0
 25 26  4  0  0  0  0
 26 27  4  0  0  0  0
 27 23  4  0  0  0  0
 24 28  1  0  0  0  0
 28 29  1  0  0  0  0
 27 30  1  0  0  0  0
 30 31  1  0  0  0  0
 31 32  1  0  0  0  0
 32 33  1  0  0  0  0
 33 34  1  0  0  0  0
 34 30  1  0  0  0  0
 30 35  1  0  0  0  0
 35 36  1  0  0  0  0
M  END
> <From>
www.bindingDB.org

> <BindingDB Reactant_set_id>
556909

> <Ligand InChI>
InChI=1S/C26H32ClN5O3S/c1-17(2)36(33,34)23-9-5-4-8-20(23)30-24-19(27)15-29-25(32-24)31-21-14-18(10-11-22(21)35-3)26(16-28)12-6-7-13-26/h4-5,8-11,14-15,17H,6-7,12-13,16,28H2,1-3H3,(H2,29,30,31,32)

> <Ligand InChI Key>
HYIBKVQEYRPUTQ-UHFFFAOYSA-N

> <BindingDB MonomerID>
291931

> <BindingDB Ligand Name>
US10100019, Example 1

> <Target Name Assigned by Curator or DataSource>
ALK tyrosine kinase receptor

> <Target Source Organism According to Curator or DataSource>
Homo sapiens

> <Ki (nM)>


> <IC50 (nM)>
 2800

> <Kd (nM)>


> <EC50 (nM)>


> <kon (M-1-s-1)>


> <koff (s-1)>


> <pH>


> <Temp C>
25.00

> <Curation/DataSource>
US Patent

> <Article DOI>
10.1016/j.bmcl.2006.04.076

> <PMID>


> <PubChem AID>


> <Patent Number>
US10100019

> <Authors>
Kim, P; Kim, HR; Cho, SY; Ha, JD; Jung, HJ; Yun, CS; Hwang, JY; Park, CH; Lee, CO; Ahn, S; Chae, CH

> <Institution>
Korea Research Institute of Chemical Technology

> <Link to Ligand in BindingDB>
http://www.bindingdb.org/bind/chemsearch/marvin/MolStructure.jsp?monomerid=291931

> <Link to Ligand-Target Pair in BindingDB>
http://www.bindingdb.org/jsp/dbsearch/PrimarySearch_ki.jsp?energyterm=kJ/mole&tag=pol&polymerid=5809&target=ALK+tyrosine+kinase+receptor&column=ki&startPg=0&Increment=50&submit=Search

> <Link to Ligand-Target Pair in BindingDB>
http://www.bindingdb.org/jsp/dbsearch/PrimarySearch_ki.jsp?energyterm=kJ/mole&tag=r21&monomerid=291931&enzyme=ALK+tyrosine+kinase+receptor&column=ki&startPg=0&Increment=50&submit=Search

> <Ligand HET ID in PDB>


> <PDB ID(s) for Ligand-Target Complex>


> <PubChem CID>
134449914

> <PubChem SID>
381612230

> <ChEBI ID of Ligand>


> <ChEMBL ID of Ligand>


> <DrugBank ID of Ligand>


> <IUPHAR_GRAC ID of Ligand>


> <KEGG ID of Ligand>


> <ZINC ID of Ligand>


> <Number of Protein Chains in Target (>1 implies a multichain complex)>
1

> <BindingDB Target Chain Sequence>
MGAIGLLWLLPLLLSTAAVGSGMGTGQRAGSPAAGPPLQPREPLSYSRLQRKSLAVDFVVPSLFRVYARDLLLPPSSSELKAGRPEARGSLALDCAPLLRLLGPAPGVSWTAGSPAPAEARTLSRVLKGGSVRKLRRAKQLVLELGEEAILEGCVGPPGEAAVGLLQFNLSELFSWWIRQGEGRLRIRLMPEKKASEVGREGRLSAAIRASQPRLLFQIFGTGHSSLESPTNMPSPSPDYFTWNLTWIMKDSFPFLSHRSRYGLECSFDFPCELEYSPPLHDLRNQSWSWRRIPSEEASQMDLLDGPGAERSKEMPRGSFLLLNTSADSKHTILSPWMRSSSEHCTLAVSVHRHLQPSGRYIAQLLPHNEAAREILLMPTPGKHGWTVLQGRIGRPDNPFRVALEYISSGNRSLSAVDFFALKNCSEGTSPGSKMALQSSFTCWNGTVLQLGQACDFHQDCAQGEDESQMCRKLPVGFYCNFEDGFCGWTQGTLSPHTPQWQVRTLKDARFQDHQDHALLLSTTDVPASESATVTSATFPAPIKSSPCELRMSWLIRGVLRGNVSLVLVENKTGKEQGRMVWHVAAYEGLSLWQWMVLPLLDVSDRFWLQMVAWWGQGSRAIVAFDNISISLDCYLTISGEDKILQNTAPKSRNLFERNPNKELKPGENSPRQTPIFDPTVHWLFTTCGASGPHGPTQAQCNNAYQNSNLSVEVGSEGPLKGIQIWKVPATDTYSISGYGAAGGKGGKNTMMRSHGVSVLGIFNLEKDDMLYILVGQQGEDACPSTNQLIQKVCIGENNVIEEEIRVNRSVHEWAGGGGGGGGATYVFKMKDGVPVPLIIAAGGGGRAYGAKTDTFHPERLENNSSVLGLNGNSGAAGGGGGWNDNTSLLWAGKSLQEGATGGHSCPQAMKKWGWETRGGFGGGGGGCSSGGGGGGYIGGNAASNNDPEMDGEDGVSFISPLGILYTPALKVMEGHGEVNIKHYLNCSHCEVDECHMDPESHKVICFCDHGTVLAEDGVSCIVSPTPEPHLPLSLILSVVTSALVAALVLAFSGIMIVYRRKHQELQAMQMELQSPEYKLSKLRTSTIMTDYNPNYCFAGKTSSISDLKEVPRKNITLIRGLGHGAFGEVYEGQVSGMPNDPSPLQVAVKTLPEVCSEQDELDFLMEALIISKFNHQNIVRCIGVSLQSLPRFILLELMAGGDLKSFLRETRPRPSQPSSLAMLDLLHVARDIACGCQYLEENHFIHRDIAARNCLLTCPGPGRVAKIGDFGMARDIYRASYYRKGGCAMLPVKWMPPEAFMEGIFTSKTDTWSFGVLLWEIFSLGYMPYPSKSNQEVLEFVTSGGRMDPPKNCPGPVYRIMTQCWQHQPEDRPNFAIILERIEYCTQDPDVINTALPIEYGPLVEEEEKVPVRPKDPEGVPPLLVSQQAKREEERSPAAPPPLPTTSSGKAAKKPTAAEISVRVPRGPAVEGGHVNMAFSQSNPPSELHKVHGSRNKPTSLWNPTYGSWFTEKPTKKNNPIAKKEPHDRGNLGLEGSCTVPPNVATGRLPGASLLLEPSSLTANMKEVPLFRLRHFPCGNVNYGYQQQGLPLEAATAPGAGHYEDTILKSKNSMNQPGP

> <PDB ID(s) of Target Chain>
2XB7,2XBA,3AOX,5FTO,5FTQ,6E0R,6EBW,6EDL,6MX8

> <UniProt (SwissProt) Recommended Name of Target Chain>
ALK tyrosine kinase receptor

> <UniProt (SwissProt) Entry Name of Target Chain>
ALK_HUMAN

> <UniProt (SwissProt) Primary ID of Target Chain>
Q9UM73

> <UniProt (SwissProt) Secondary ID(s) of Target Chain>
Q4ZFX9,Q53QQ6,Q53RZ4,Q59FI3,Q9Y4K6

> <UniProt (SwissProt) Alternative ID(s) of Target Chain>


> <UniProt (TrEMBL) Submitted Name of Target Chain>


> <UniProt (TrEMBL) Entry Name of Target Chain>


> <UniProt (TrEMBL) Primary ID of Target Chain>


> <UniProt (TrEMBL) Secondary ID(s) of Target Chain>


> <UniProt (TrEMBL) Alternative ID(s) of Target Chain>


$$$$
00140001.cdx
  Mrv0541 02211919242D          

 37 40  0  0  0  0            999 V2000
   -1.7862    1.6500    0.0000 C   0  0  0  0  0  0  0  0  0  0  0  0
   -1.7862    0.8250    0.0000 C   0  0  0  0  0  0  0  0  0  0  0  0
   -2.5006    0.4125    0.0000 C   0  0  0  0  0  0  0  0  0  0  0  0
   -3.2151    0.8250    0.0000 C   0  0  0  0  0  0  0  0  0  0  0  0
   -3.2151    1.6500    0.0000 C   0  0  0  0  0  0  0  0  0  0  0  0
   -2.5006    2.0625    0.0000 C   0  0  0  0  0  0  0  0  0  0  0  0
   -1.0717    2.0625    0.0000 S   0  0  0  0  0  0  0  0  0  0  0  0
   -1.4842    2.7770    0.0000 O   0  0  0  0  0  0  0  0  0  0  0  0
   -0.6592    1.3480    0.0000 O   0  0  0  0  0  0  0  0  0  0  0  0
   -0.3572    2.4750    0.0000 C   0  0  0  0  0  0  0  0  0  0  0  0
   -0.3572    3.3000    0.0000 C   0  0  0  0  0  0  0  0  0  0  0  0
    0.3572    2.0625    0.0000 C   0  0  0  0  0  0  0  0  0  0  0  0
   -1.0717    0.4125    0.0000 N   0  0  0  0  0  0  0  0  0  0  0  0
   -1.0717   -0.4125    0.0000 C   0  0  0  0  0  0  0  0  0  0  0  0
   -1.7862   -0.8250    0.0000 C   0  0  0  0  0  0  0  0  0  0  0  0
   -1.7862   -1.6500    0.0000 C   0  0  0  0  0  0  0  0  0  0  0  0
   -1.0717   -2.0625    0.0000 N   0  0  0  0  0  0  0  0  0  0  0  0
   -0.3572   -1.6500    0.0000 C   0  0  0  0  0  0  0  0  0  0  0  0
   -0.3572   -0.8250    0.0000 N   0  0  0  0  0  0  0  0  0  0  0  0
   -2.5006   -0.4125    0.0000 Cl  0  0  0  0  0  0  0  0  0  0  0  0
    0.3572   -2.0625    0.0000 N   0  0  0  0  0  0  0  0  0  0  0  0
    1.0717   -1.6500    0.0000 C   0  0  0  0  0  0  0  0  0  0  0  0
    1.0717   -0.8250    0.0000 C   0  0  0  0  0  0  0  0  0  0  0  0
    1.7862   -2.0625    0.0000 C   0  0  0  0  0  0  0  0  0  0  0  0
    2.5006   -1.6500    0.0000 C   0  0  0  0  0  0  0  0  0  0  0  0
    2.5006   -0.8250    0.0000 C   0  0  0  0  0  0  0  0  0  0  0  0
    1.7862   -0.4125    0.0000 C   0  0  0  0  0  0  0  0  0  0  0  0
    1.7862   -2.8875    0.0000 O   0  0  0  0  0  0  0  0  0  0  0  0
    2.5006   -3.3000    0.0000 C   0  0  0  0  0  0  0  0  0  0  0  0
    1.7862    0.4125    0.0000 C   0  0  0  0  0  0  0  0  0  0  0  0
    2.5006    0.8250    0.0000 C   0  0  0  0  0  0  0  0  0  0  0  0
    3.2151    0.4125    0.0000 N   0  0  0  0  0  0  0  0  0  0  0  0
    1.7862    1.2375    0.0000 C   0  0  0  0  0  0  0  0  0  0  0  0
    1.0717    1.6500    0.0000 C   0  0  0  0  0  0  0  0  0  0  0  0
    0.3572    1.2375    0.0000 C   0  0  0  0  0  0  0  0  0  0  0  0
    0.3572    0.4125    0.0000 C   0  0  0  0  0  0  0  0  0  0  0  0
    1.0717    0.0000    0.0000 C   0  0  0  0  0  0  0  0  0  0  0  0
  1  2  4  0  0  0  0
  2  3  4  0  0  0  0
  3  4  4  0  0  0  0
  4  5  4  0  0  0  0
  5  6  4  0  0  0  0
  6  1  4  0  0  0  0
  1  7  1  0  0  0  0
  7  8  2  0  0  0  0
  7  9  2  0  0  0  0
  7 10  1  0  0  0  0
 10 11  1  0  0  0  0
 10 12  1  0  0  0  0
  2 13  1  0  0  0  0
 13 14  1  0  0  0  0
 14 15  4  0  0  0  0
 15 16  4  0  0  0  0
 16 17  4  0  0  0  0
 17 18  4  0  0  0  0
 18 19  4  0  0  0  0
 19 14  4  0  0  0  0
 15 20  1  0  0  0  0
 18 21  1  0  0  0  0
 21 22  1  0  0  0  0
 22 23  4  0  0  0  0
 22 24  4  0  0  0  0
 24 25  4  0  0  0  0
 25 26  4  0  0  0  0
 26 27  4  0  0  0  0
 27 23  4  0  0  0  0
 24 28  1  0  0  0  0
 28 29  1  0  0  0  0
 27 30  1  0  0  0  0
 30 31  1  0  0  0  0
 31 32  1  0  0  0  0
 30 33  1  0  0  0  0
 33 34  1  0  0  0  0
 34 35  1  0  0  0  0
 35 36  1  0  0  0  0
 36 37  1  0  0  0  0
 37 30  1  0  0  0  0
M  END
> <From>
www.bindingDB.org

> <BindingDB Reactant_set_id>
556910

> <Ligand InChI>
InChI=1S/C27H34ClN5O3S/c1-18(2)37(34,35)24-10-6-5-9-21(24)31-25-20(28)16-30-26(33-25)32-22-15-19(11-12-23(22)36-3)27(17-29)13-7-4-8-14-27/h5-6,9-12,15-16,18H,4,7-8,13-14,17,29H2,1-3H3,(H2,30,31,32,33)

> <Ligand InChI Key>
LSNPKUNXLMVDON-UHFFFAOYSA-N

> <BindingDB MonomerID>
291932

> <BindingDB Ligand Name>
US10100019, Example 2

> <Target Name Assigned by Curator or DataSource>
ALK tyrosine kinase receptor

> <Target Source Organism According to Curator or DataSource>
Homo sapiens

> <Ki (nM)>


> <IC50 (nM)>
 430

> <Kd (nM)>


> <EC50 (nM)>


> <kon (M-1-s-1)>


> <koff (s-1)>


> <pH>


> <Temp C>
25.00

> <Curation/DataSource>
US Patent

> <Article DOI>
10.1016/j.bmcl.2006.04.076

> <PMID>


> <PubChem AID>


> <Patent Number>
US10100019

> <Authors>
Kim, P; Kim, HR; Cho, SY; Ha, JD; Jung, HJ; Yun, CS; Hwang, JY; Park, CH; Lee, CO; Ahn, S; Chae, CH

> <Institution>
Korea Research Institute of Chemical Technology

> <Link to Ligand in BindingDB>
http://www.bindingdb.org/bind/chemsearch/marvin/MolStructure.jsp?monomerid=291932

> <Link to Ligand-Target Pair in BindingDB>
http://www.bindingdb.org/jsp/dbsearch/PrimarySearch_ki.jsp?energyterm=kJ/mole&tag=pol&polymerid=5809&target=ALK+tyrosine+kinase+receptor&column=ki&startPg=0&Increment=50&submit=Search

> <Link to Ligand-Target Pair in BindingDB>
http://www.bindingdb.org/jsp/dbsearch/PrimarySearch_ki.jsp?energyterm=kJ/mole&tag=r21&monomerid=291932&enzyme=ALK+tyrosine+kinase+receptor&column=ki&startPg=0&Increment=50&submit=Search

> <Ligand HET ID in PDB>


> <PDB ID(s) for Ligand-Target Complex>


> <PubChem CID>
134449921

> <PubChem SID>
381612231

> <ChEBI ID of Ligand>


> <ChEMBL ID of Ligand>


> <DrugBank ID of Ligand>


> <IUPHAR_GRAC ID of Ligand>


> <KEGG ID of Ligand>


> <ZINC ID of Ligand>


> <Number of Protein Chains in Target (>1 implies a multichain complex)>
1

> <BindingDB Target Chain Sequence>
MGAIGLLWLLPLLLSTAAVGSGMGTGQRAGSPAAGPPLQPREPLSYSRLQRKSLAVDFVVPSLFRVYARDLLLPPSSSELKAGRPEARGSLALDCAPLLRLLGPAPGVSWTAGSPAPAEARTLSRVLKGGSVRKLRRAKQLVLELGEEAILEGCVGPPGEAAVGLLQFNLSELFSWWIRQGEGRLRIRLMPEKKASEVGREGRLSAAIRASQPRLLFQIFGTGHSSLESPTNMPSPSPDYFTWNLTWIMKDSFPFLSHRSRYGLECSFDFPCELEYSPPLHDLRNQSWSWRRIPSEEASQMDLLDGPGAERSKEMPRGSFLLLNTSADSKHTILSPWMRSSSEHCTLAVSVHRHLQPSGRYIAQLLPHNEAAREILLMPTPGKHGWTVLQGRIGRPDNPFRVALEYISSGNRSLSAVDFFALKNCSEGTSPGSKMALQSSFTCWNGTVLQLGQACDFHQDCAQGEDESQMCRKLPVGFYCNFEDGFCGWTQGTLSPHTPQWQVRTLKDARFQDHQDHALLLSTTDVPASESATVTSATFPAPIKSSPCELRMSWLIRGVLRGNVSLVLVENKTGKEQGRMVWHVAAYEGLSLWQWMVLPLLDVSDRFWLQMVAWWGQGSRAIVAFDNISISLDCYLTISGEDKILQNTAPKSRNLFERNPNKELKPGENSPRQTPIFDPTVHWLFTTCGASGPHGPTQAQCNNAYQNSNLSVEVGSEGPLKGIQIWKVPATDTYSISGYGAAGGKGGKNTMMRSHGVSVLGIFNLEKDDMLYILVGQQGEDACPSTNQLIQKVCIGENNVIEEEIRVNRSVHEWAGGGGGGGGATYVFKMKDGVPVPLIIAAGGGGRAYGAKTDTFHPERLENNSSVLGLNGNSGAAGGGGGWNDNTSLLWAGKSLQEGATGGHSCPQAMKKWGWETRGGFGGGGGGCSSGGGGGGYIGGNAASNNDPEMDGEDGVSFISPLGILYTPALKVMEGHGEVNIKHYLNCSHCEVDECHMDPESHKVICFCDHGTVLAEDGVSCIVSPTPEPHLPLSLILSVVTSALVAALVLAFSGIMIVYRRKHQELQAMQMELQSPEYKLSKLRTSTIMTDYNPNYCFAGKTSSISDLKEVPRKNITLIRGLGHGAFGEVYEGQVSGMPNDPSPLQVAVKTLPEVCSEQDELDFLMEALIISKFNHQNIVRCIGVSLQSLPRFILLELMAGGDLKSFLRETRPRPSQPSSLAMLDLLHVARDIACGCQYLEENHFIHRDIAARNCLLTCPGPGRVAKIGDFGMARDIYRASYYRKGGCAMLPVKWMPPEAFMEGIFTSKTDTWSFGVLLWEIFSLGYMPYPSKSNQEVLEFVTSGGRMDPPKNCPGPVYRIMTQCWQHQPEDRPNFAIILERIEYCTQDPDVINTALPIEYGPLVEEEEKVPVRPKDPEGVPPLLVSQQAKREEERSPAAPPPLPTTSSGKAAKKPTAAEISVRVPRGPAVEGGHVNMAFSQSNPPSELHKVHGSRNKPTSLWNPTYGSWFTEKPTKKNNPIAKKEPHDRGNLGLEGSCTVPPNVATGRLPGASLLLEPSSLTANMKEVPLFRLRHFPCGNVNYGYQQQGLPLEAATAPGAGHYEDTILKSKNSMNQPGP

> <PDB ID(s) of Target Chain>
2XB7,2XBA,3AOX,5FTO,5FTQ,6E0R,6EBW,6EDL,6MX8

> <UniProt (SwissProt) Recommended Name of Target Chain>
ALK tyrosine kinase receptor

> <UniProt (SwissProt) Entry Name of Target Chain>
ALK_HUMAN

> <UniProt (SwissProt) Primary ID of Target Chain>
Q9UM73

> <UniProt (SwissProt) Secondary ID(s) of Target Chain>
Q4ZFX9,Q53QQ6,Q53RZ4,Q59FI3,Q9Y4K6

> <UniProt (SwissProt) Alternative ID(s) of Target Chain>


> <UniProt (TrEMBL) Submitted Name of Target Chain>


> <UniProt (TrEMBL) Entry Name of Target Chain>


> <UniProt (TrEMBL) Primary ID of Target Chain>


> <UniProt (TrEMBL) Secondary ID(s) of Target Chain>


> <UniProt (TrEMBL) Alternative ID(s) of Target Chain>


$$$$
00136001.cdx
  Mrv0541 02211919242D          

 34 37  0  0  0  0            999 V2000
   -1.7862    1.6500    0.0000 C   0  0  0  0  0  0  0  0  0  0  0  0
   -1.7862    0.8250    0.0000 C   0  0  0  0  0  0  0  0  0  0  0  0
   -2.5006    0.4125    0.0000 C   0  0  0  0  0  0  0  0  0  0  0  0
   -3.2151    0.8250    0.0000 C   0  0  0  0  0  0  0  0  0  0  0  0
   -3.2151    1.6500    0.0000 C   0  0  0  0  0  0  0  0  0  0  0  0
   -2.5006    2.0625    0.0000 C   0  0  0  0  0  0  0  0  0  0  0  0
   -1.0717    2.0625    0.0000 S   0  0  0  0  0  0  0  0  0  0  0  0
   -1.4842    2.7770    0.0000 O   0  0  0  0  0  0  0  0  0  0  0  0
   -0.6592    1.3480    0.0000 O   0  0  0  0  0  0  0  0  0  0  0  0
   -0.3572    2.4750    0.0000 C   0  0  0  0  0  0  0  0  0  0  0  0
   -0.3572    3.3000    0.0000 C   0  0  0  0  0  0  0  0  0  0  0  0
    0.3572    2.0625    0.0000 C   0  0  0  0  0  0  0  0  0  0  0  0
   -1.0717    0.4125    0.0000 N   0  0  0  0  0  0  0  0  0  0  0  0
   -1.0717   -0.4125    0.0000 C   0  0  0  0  0  0  0  0  0  0  0  0
   -1.7862   -0.8250    0.0000 C   0  0  0  0  0  0  0  0  0  0  0  0
   -1.7862   -1.6500    0.0000 C   0  0  0  0  0  0  0  0  0  0  0  0
   -1.0717   -2.0625    0.0000 N   0  0  0  0  0  0  0  0  0  0  0  0
   -0.3572   -1.6500    0.0000 C   0  0  0  0  0  0  0  0  0  0  0  0
   -0.3572   -0.8250    0.0000 N   0  0  0  0  0  0  0  0  0  0  0  0
   -2.5006   -0.4125    0.0000 Cl  0  0  0  0  0  0  0  0  0  0  0  0
    0.3572   -2.0625    0.0000 N   0  0  0  0  0  0  0  0  0  0  0  0
    1.0717   -1.6500    0.0000 C   0  0  0  0  0  0  0  0  0  0  0  0
    1.0717   -0.8250    0.0000 C   0  0  0  0  0  0  0  0  0  0  0  0
    1.7862   -2.0625    0.0000 C   0  0  0  0  0  0  0  0  0  0  0  0
    2.5006   -1.6500    0.0000 C   0  0  0  0  0  0  0  0  0  0  0  0
    2.5006   -0.8250    0.0000 C   0  0  0  0  0  0  0  0  0  0  0  0
    1.7862   -0.4125    0.0000 C   0  0  0  0  0  0  0  0  0  0  0  0
    1.7862   -2.8875    0.0000 O   0  0  0  0  0  0  0  0  0  0  0  0
    2.5006   -3.3000    0.0000 C   0  0  0  0  0  0  0  0  0  0  0  0
    1.7862    0.4125    0.0000 C   0  0  0  0  0  0  0  0  0  0  0  0
    2.5006    0.8250    0.0000 C   0  0  0  0  0  0  0  0  0  0  0  0
    3.2151    0.4125    0.0000 N   0  0  0  0  0  0  0  0  0  0  0  0
    2.9131    1.5395    0.0000 C   0  0  0  0  0  0  0  0  0  0  0  0
    2.0881    1.5395    0.0000 C   0  0  0  0  0  0  0  0  0  0  0  0
  1  2  4  0  0  0  0
  2  3  4  0  0  0  0
  3  4  4  0  0  0  0
  4  5  4  0  0  0  0
  5  6  4  0  0  0  0
  6  1  4  0  0  0  0
  1  7  1  0  0  0  0
  7  8  2  0  0  0  0
  7  9  2  0  0  0  0
  7 10  1  0  0  0  0
 10 11  1  0  0  0  0
 10 12  1  0  0  0  0
  2 13  1  0  0  0  0
 13 14  1  0  0  0  0
 14 15  4  0  0  0  0
 15 16  4  0  0  0  0
 16 17  4  0  0  0  0
 17 18  4  0  0  0  0
 18 19  4  0  0  0  0
 19 14  4  0  0  0  0
 15 20  1  0  0  0  0
 18 21  1  0  0  0  0
 21 22  1  0  0  0  0
 22 23  4  0  0  0  0
 22 24  4  0  0  0  0
 24 25  4  0  0  0  0
 25 26  4  0  0  0  0
 26 27  4  0  0  0  0
 27 23  4  0  0  0  0
 24 28  1  0  0  0  0
 28 29  1  0  0  0  0
 27 30  1  0  0  0  0
 30 31  1  0  0  0  0
 31 32  1  0  0  0  0
 31 33  1  0  0  0  0
 33 34  1  0  0  0  0
 34 31  1  0  0  0  0
M  END
> <From>
www.bindingDB.org

> <BindingDB Reactant_set_id>
556911

> <Ligand InChI>
InChI=1S/C24H28ClN5O3S/c1-15(2)34(31,32)21-7-5-4-6-18(21)28-22-17(25)14-27-23(30-22)29-19-12-16(8-9-20(19)33-3)13-24(26)10-11-24/h4-9,12,14-15H,10-11,13,26H2,1-3H3,(H2,27,28,29,30)

> <Ligand InChI Key>
MBDRYJSNQAFOKD-UHFFFAOYSA-N

> <BindingDB MonomerID>
291933

> <BindingDB Ligand Name>
US10100019, Example 3

> <Target Name Assigned by Curator or DataSource>
ALK tyrosine kinase receptor

> <Target Source Organism According to Curator or DataSource>
Homo sapiens

> <Ki (nM)>


> <IC50 (nM)>
 12.0

> <Kd (nM)>


> <EC50 (nM)>


> <kon (M-1-s-1)>


> <koff (s-1)>


> <pH>


> <Temp C>
25.00

> <Curation/DataSource>
US Patent

> <Article DOI>
10.1016/j.bmcl.2006.04.076

> <PMID>


> <PubChem AID>


> <Patent Number>
US10100019

> <Authors>
Kim, P; Kim, HR; Cho, SY; Ha, JD; Jung, HJ; Yun, CS; Hwang, JY; Park, CH; Lee, CO; Ahn, S; Chae, CH

> <Institution>
Korea Research Institute of Chemical Technology

> <Link to Ligand in BindingDB>
http://www.bindingdb.org/bind/chemsearch/marvin/MolStructure.jsp?monomerid=291933

> <Link to Ligand-Target Pair in BindingDB>
http://www.bindingdb.org/jsp/dbsearch/PrimarySearch_ki.jsp?energyterm=kJ/mole&tag=pol&polymerid=5809&target=ALK+tyrosine+kinase+receptor&column=ki&startPg=0&Increment=50&submit=Search

> <Link to Ligand-Target Pair in BindingDB>
http://www.bindingdb.org/jsp/dbsearch/PrimarySearch_ki.jsp?energyterm=kJ/mole&tag=r21&monomerid=291933&enzyme=ALK+tyrosine+kinase+receptor&column=ki&startPg=0&Increment=50&submit=Search

> <Ligand HET ID in PDB>


> <PDB ID(s) for Ligand-Target Complex>


> <PubChem CID>
122629274

> <PubChem SID>
381612232

> <ChEBI ID of Ligand>


> <ChEMBL ID of Ligand>


> <DrugBank ID of Ligand>


> <IUPHAR_GRAC ID of Ligand>


> <KEGG ID of Ligand>


> <ZINC ID of Ligand>


> <Number of Protein Chains in Target (>1 implies a multichain complex)>
1

> <BindingDB Target Chain Sequence>
MGAIGLLWLLPLLLSTAAVGSGMGTGQRAGSPAAGPPLQPREPLSYSRLQRKSLAVDFVVPSLFRVYARDLLLPPSSSELKAGRPEARGSLALDCAPLLRLLGPAPGVSWTAGSPAPAEARTLSRVLKGGSVRKLRRAKQLVLELGEEAILEGCVGPPGEAAVGLLQFNLSELFSWWIRQGEGRLRIRLMPEKKASEVGREGRLSAAIRASQPRLLFQIFGTGHSSLESPTNMPSPSPDYFTWNLTWIMKDSFPFLSHRSRYGLECSFDFPCELEYSPPLHDLRNQSWSWRRIPSEEASQMDLLDGPGAERSKEMPRGSFLLLNTSADSKHTILSPWMRSSSEHCTLAVSVHRHLQPSGRYIAQLLPHNEAAREILLMPTPGKHGWTVLQGRIGRPDNPFRVALEYISSGNRSLSAVDFFALKNCSEGTSPGSKMALQSSFTCWNGTVLQLGQACDFHQDCAQGEDESQMCRKLPVGFYCNFEDGFCGWTQGTLSPHTPQWQVRTLKDARFQDHQDHALLLSTTDVPASESATVTSATFPAPIKSSPCELRMSWLIRGVLRGNVSLVLVENKTGKEQGRMVWHVAAYEGLSLWQWMVLPLLDVSDRFWLQMVAWWGQGSRAIVAFDNISISLDCYLTISGEDKILQNTAPKSRNLFERNPNKELKPGENSPRQTPIFDPTVHWLFTTCGASGPHGPTQAQCNNAYQNSNLSVEVGSEGPLKGIQIWKVPATDTYSISGYGAAGGKGGKNTMMRSHGVSVLGIFNLEKDDMLYILVGQQGEDACPSTNQLIQKVCIGENNVIEEEIRVNRSVHEWAGGGGGGGGATYVFKMKDGVPVPLIIAAGGGGRAYGAKTDTFHPERLENNSSVLGLNGNSGAAGGGGGWNDNTSLLWAGKSLQEGATGGHSCPQAMKKWGWETRGGFGGGGGGCSSGGGGGGYIGGNAASNNDPEMDGEDGVSFISPLGILYTPALKVMEGHGEVNIKHYLNCSHCEVDECHMDPESHKVICFCDHGTVLAEDGVSCIVSPTPEPHLPLSLILSVVTSALVAALVLAFSGIMIVYRRKHQELQAMQMELQSPEYKLSKLRTSTIMTDYNPNYCFAGKTSSISDLKEVPRKNITLIRGLGHGAFGEVYEGQVSGMPNDPSPLQVAVKTLPEVCSEQDELDFLMEALIISKFNHQNIVRCIGVSLQSLPRFILLELMAGGDLKSFLRETRPRPSQPSSLAMLDLLHVARDIACGCQYLEENHFIHRDIAARNCLLTCPGPGRVAKIGDFGMARDIYRASYYRKGGCAMLPVKWMPPEAFMEGIFTSKTDTWSFGVLLWEIFSLGYMPYPSKSNQEVLEFVTSGGRMDPPKNCPGPVYRIMTQCWQHQPEDRPNFAIILERIEYCTQDPDVINTALPIEYGPLVEEEEKVPVRPKDPEGVPPLLVSQQAKREEERSPAAPPPLPTTSSGKAAKKPTAAEISVRVPRGPAVEGGHVNMAFSQSNPPSELHKVHGSRNKPTSLWNPTYGSWFTEKPTKKNNPIAKKEPHDRGNLGLEGSCTVPPNVATGRLPGASLLLEPSSLTANMKEVPLFRLRHFPCGNVNYGYQQQGLPLEAATAPGAGHYEDTILKSKNSMNQPGP

> <PDB ID(s) of Target Chain>
2XB7,2XBA,3AOX,5FTO,5FTQ,6E0R,6EBW,6EDL,6MX8

> <UniProt (SwissProt) Recommended Name of Target Chain>
ALK tyrosine kinase receptor

> <UniProt (SwissProt) Entry Name of Target Chain>
ALK_HUMAN

> <UniProt (SwissProt) Primary ID of Target Chain>
Q9UM73

> <UniProt (SwissProt) Secondary ID(s) of Target Chain>
Q4ZFX9,Q53QQ6,Q53RZ4,Q59FI3,Q9Y4K6

> <UniProt (SwissProt) Alternative ID(s) of Target Chain>


> <UniProt (TrEMBL) Submitted Name of Target Chain>


> <UniProt (TrEMBL) Entry Name of Target Chain>


> <UniProt (TrEMBL) Primary ID of Target Chain>


> <UniProt (TrEMBL) Secondary ID(s) of Target Chain>


> <UniProt (TrEMBL) Alternative ID(s) of Target Chain>


$$$$
00141001.cdx
  Mrv0541 02211919242D          

 32 34  0  0  0  0            999 V2000
   -1.7862    1.6500    0.0000 C   0  0  0  0  0  0  0  0  0  0  0  0
   -1.7862    0.8250    0.0000 C   0  0  0  0  0  0  0  0  0  0  0  0
   -2.5006    0.4125    0.0000 C   0  0  0  0  0  0  0  0  0  0  0  0
   -3.2151    0.8250    0.0000 C   0  0  0  0  0  0  0  0  0  0  0  0
   -3.2151    1.6500    0.0000 C   0  0  0  0  0  0  0  0  0  0  0  0
   -2.5006    2.0625    0.0000 C   0  0  0  0  0  0  0  0  0  0  0  0
   -1.0717    2.0625    0.0000 S   0  0  0  0  0  0  0  0  0  0  0  0
   -1.4842    2.7770    0.0000 O   0  0  0  0  0  0  0  0  0  0  0  0
   -0.6592    1.3480    0.0000 O   0  0  0  0  0  0  0  0  0  0  0  0
   -0.3572    2.4750    0.0000 C   0  0  0  0  0  0  0  0  0  0  0  0
   -0.3572    3.3000    0.0000 C   0  0  0  0  0  0  0  0  0  0  0  0
    0.3572    2.0625    0.0000 C   0  0  0  0  0  0  0  0  0  0  0  0
   -1.0717    0.4125    0.0000 N   0  0  0  0  0  0  0  0  0  0  0  0
   -1.0717   -0.4125    0.0000 C   0  0  0  0  0  0  0  0  0  0  0  0
   -1.7862   -0.8250    0.0000 C   0  0  0  0  0  0  0  0  0  0  0  0
   -1.7862   -1.6500    0.0000 C   0  0  0  0  0  0  0  0  0  0  0  0
   -1.0717   -2.0625    0.0000 N   0  0  0  0  0  0  0  0  0  0  0  0
   -0.3572   -1.6500    0.0000 C   0  0  0  0  0  0  0  0  0  0  0  0
   -0.3572   -0.8250    0.0000 N   0  0  0  0  0  0  0  0  0  0  0  0
   -2.5006   -0.4125    0.0000 Cl  0  0  0  0  0  0  0  0  0  0  0  0
    0.3572   -2.0625    0.0000 N   0  0  0  0  0  0  0  0  0  0  0  0
    1.0717   -1.6500    0.0000 C   0  0  0  0  0  0  0  0  0  0  0  0
    1.0717   -0.8250    0.0000 C   0  0  0  0  0  0  0  0  0  0  0  0
    1.7862   -2.0625    0.0000 C   0  0  0  0  0  0  0  0  0  0  0  0
    2.5006   -1.6500    0.0000 C   0  0  0  0  0  0  0  0  0  0  0  0
    2.5006   -0.8250    0.0000 C   0  0  0  0  0  0  0  0  0  0  0  0
    1.7862   -0.4125    0.0000 C   0  0  0  0  0  0  0  0  0  0  0  0
    1.7862   -2.8875    0.0000 O   0  0  0  0  0  0  0  0  0  0  0  0
    2.5006   -3.3000    0.0000 C   0  0  0  0  0  0  0  0  0  0  0  0
    1.7862    0.4125    0.0000 C   0  0  0  0  0  0  0  0  0  0  0  0
    2.5006    0.8250    0.0000 C   0  0  0  0  0  0  0  0  0  0  0  0
    3.2151    0.4125    0.0000 N   0  0  0  0  0  0  0  0  0  0  0  0
  1  2  4  0  0  0  0
  2  3  4  0  0  0  0
  3  4  4  0  0  0  0
  4  5  4  0  0  0  0
  5  6  4  0  0  0  0
  6  1  4  0  0  0  0
  1  7  1  0  0  0  0
  7  8  2  0  0  0  0
  7  9  2  0  0  0  0
  7 10  1  0  0  0  0
 10 11  1  0  0  0  0
 10 12  1  0  0  0  0
  2 13  1  0  0  0  0
 13 14  1  0  0  0  0
 14 15  4  0  0  0  0
 15 16  4  0  0  0  0
 16 17  4  0  0  0  0
 17 18  4  0  0  0  0
 18 19  4  0  0  0  0
 19 14  4  0  0  0  0
 15 20  1  0  0  0  0
 18 21  1  0  0  0  0
 21 22  1  0  0  0  0
 22 23  4  0  0  0  0
 22 24  4  0  0  0  0
 24 25  4  0  0  0  0
 25 26  4  0  0  0  0
 26 27  4  0  0  0  0
 27 23  4  0  0  0  0
 24 28  1  0  0  0  0
 28 29  1  0  0  0  0
 27 30  1  0  0  0  0
 30 31  1  0  0  0  0
 31 32  1  0  0  0  0
M  END
> <From>
www.bindingDB.org

> <BindingDB Reactant_set_id>
556912

> <Ligand InChI>
InChI=1S/C22H26ClN5O3S/c1-14(2)32(29,30)20-7-5-4-6-17(20)26-21-16(23)13-25-22(28-21)27-18-12-15(10-11-24)8-9-19(18)31-3/h4-9,12-14H,10-11,24H2,1-3H3,(H2,25,26,27,28)

> <Ligand InChI Key>
NFZBAKHCVIQLBD-UHFFFAOYSA-N

> <BindingDB MonomerID>
291934

> <BindingDB Ligand Name>
US10100019, Example 4

> <Target Name Assigned by Curator or DataSource>
ALK tyrosine kinase receptor

> <Target Source Organism According to Curator or DataSource>
Homo sapiens

> <Ki (nM)>


> <IC50 (nM)>
 0.440

> <Kd (nM)>


> <EC50 (nM)>


> <kon (M-1-s-1)>


> <koff (s-1)>


> <pH>


> <Temp C>
25.00

> <Curation/DataSource>
US Patent

> <Article DOI>
10.1016/j.bmcl.2006.04.076

> <PMID>


> <PubChem AID>


> <Patent Number>
US10100019

> <Authors>
Kim, P; Kim, HR; Cho, SY; Ha, JD; Jung, HJ; Yun, CS; Hwang, JY; Park, CH; Lee, CO; Ahn, S; Chae, CH

> <Institution>
Korea Research Institute of Chemical Technology

> <Link to Ligand in BindingDB>
http://www.bindingdb.org/bind/chemsearch/marvin/MolStructure.jsp?monomerid=291934

> <Link to Ligand-Target Pair in BindingDB>
http://www.bindingdb.org/jsp/dbsearch/PrimarySearch_ki.jsp?energyterm=kJ/mole&tag=pol&polymerid=5809&target=ALK+tyrosine+kinase+receptor&column=ki&startPg=0&Increment=50&submit=Search

> <Link to Ligand-Target Pair in BindingDB>
http://www.bindingdb.org/jsp/dbsearch/PrimarySearch_ki.jsp?energyterm=kJ/mole&tag=r21&monomerid=291934&enzyme=ALK+tyrosine+kinase+receptor&column=ki&startPg=0&Increment=50&submit=Search

> <Ligand HET ID in PDB>


> <PDB ID(s) for Ligand-Target Complex>


> <PubChem CID>
122629183

> <PubChem SID>
381612233

> <ChEBI ID of Ligand>


> <ChEMBL ID of Ligand>


> <DrugBank ID of Ligand>


> <IUPHAR_GRAC ID of Ligand>


> <KEGG ID of Ligand>


> <ZINC ID of Ligand>


> <Number of Protein Chains in Target (>1 implies a multichain complex)>
1

> <BindingDB Target Chain Sequence>
MGAIGLLWLLPLLLSTAAVGSGMGTGQRAGSPAAGPPLQPREPLSYSRLQRKSLAVDFVVPSLFRVYARDLLLPPSSSELKAGRPEARGSLALDCAPLLRLLGPAPGVSWTAGSPAPAEARTLSRVLKGGSVRKLRRAKQLVLELGEEAILEGCVGPPGEAAVGLLQFNLSELFSWWIRQGEGRLRIRLMPEKKASEVGREGRLSAAIRASQPRLLFQIFGTGHSSLESPTNMPSPSPDYFTWNLTWIMKDSFPFLSHRSRYGLECSFDFPCELEYSPPLHDLRNQSWSWRRIPSEEASQMDLLDGPGAERSKEMPRGSFLLLNTSADSKHTILSPWMRSSSEHCTLAVSVHRHLQPSGRYIAQLLPHNEAAREILLMPTPGKHGWTVLQGRIGRPDNPFRVALEYISSGNRSLSAVDFFALKNCSEGTSPGSKMALQSSFTCWNGTVLQLGQACDFHQDCAQGEDESQMCRKLPVGFYCNFEDGFCGWTQGTLSPHTPQWQVRTLKDARFQDHQDHALLLSTTDVPASESATVTSATFPAPIKSSPCELRMSWLIRGVLRGNVSLVLVENKTGKEQGRMVWHVAAYEGLSLWQWMVLPLLDVSDRFWLQMVAWWGQGSRAIVAFDNISISLDCYLTISGEDKILQNTAPKSRNLFERNPNKELKPGENSPRQTPIFDPTVHWLFTTCGASGPHGPTQAQCNNAYQNSNLSVEVGSEGPLKGIQIWKVPATDTYSISGYGAAGGKGGKNTMMRSHGVSVLGIFNLEKDDMLYILVGQQGEDACPSTNQLIQKVCIGENNVIEEEIRVNRSVHEWAGGGGGGGGATYVFKMKDGVPVPLIIAAGGGGRAYGAKTDTFHPERLENNSSVLGLNGNSGAAGGGGGWNDNTSLLWAGKSLQEGATGGHSCPQAMKKWGWETRGGFGGGGGGCSSGGGGGGYIGGNAASNNDPEMDGEDGVSFISPLGILYTPALKVMEGHGEVNIKHYLNCSHCEVDECHMDPESHKVICFCDHGTVLAEDGVSCIVSPTPEPHLPLSLILSVVTSALVAALVLAFSGIMIVYRRKHQELQAMQMELQSPEYKLSKLRTSTIMTDYNPNYCFAGKTSSISDLKEVPRKNITLIRGLGHGAFGEVYEGQVSGMPNDPSPLQVAVKTLPEVCSEQDELDFLMEALIISKFNHQNIVRCIGVSLQSLPRFILLELMAGGDLKSFLRETRPRPSQPSSLAMLDLLHVARDIACGCQYLEENHFIHRDIAARNCLLTCPGPGRVAKIGDFGMARDIYRASYYRKGGCAMLPVKWMPPEAFMEGIFTSKTDTWSFGVLLWEIFSLGYMPYPSKSNQEVLEFVTSGGRMDPPKNCPGPVYRIMTQCWQHQPEDRPNFAIILERIEYCTQDPDVINTALPIEYGPLVEEEEKVPVRPKDPEGVPPLLVSQQAKREEERSPAAPPPLPTTSSGKAAKKPTAAEISVRVPRGPAVEGGHVNMAFSQSNPPSELHKVHGSRNKPTSLWNPTYGSWFTEKPTKKNNPIAKKEPHDRGNLGLEGSCTVPPNVATGRLPGASLLLEPSSLTANMKEVPLFRLRHFPCGNVNYGYQQQGLPLEAATAPGAGHYEDTILKSKNSMNQPGP

> <PDB ID(s) of Target Chain>
2XB7,2XBA,3AOX,5FTO,5FTQ,6E0R,6EBW,6EDL,6MX8

> <UniProt (SwissProt) Recommended Name of Target Chain>
ALK tyrosine kinase receptor

> <UniProt (SwissProt) Entry Name of Target Chain>
ALK_HUMAN

> <UniProt (SwissProt) Primary ID of Target Chain>
Q9UM73

> <UniProt (SwissProt) Secondary ID(s) of Target Chain>
Q4ZFX9,Q53QQ6,Q53RZ4,Q59FI3,Q9Y4K6

> <UniProt (SwissProt) Alternative ID(s) of Target Chain>


> <UniProt (TrEMBL) Submitted Name of Target Chain>


> <UniProt (TrEMBL) Entry Name of Target Chain>


> <UniProt (TrEMBL) Primary ID of Target Chain>


> <UniProt (TrEMBL) Secondary ID(s) of Target Chain>


> <UniProt (TrEMBL) Alternative ID(s) of Target Chain>


$$$$
00137001.cdx
  Mrv0541 02211919242D          

 41 45  0  0  0  0            999 V2000
   -2.0302    1.9063    0.0000 C   0  0  0  0  0  0  0  0  0  0  0  0
   -2.0302    1.0813    0.0000 C   0  0  0  0  0  0  0  0  0  0  0  0
   -2.7447    0.6688    0.0000 C   0  0  0  0  0  0  0  0  0  0  0  0
   -3.4591    1.0813    0.0000 C   0  0  0  0  0  0  0  0  0  0  0  0
   -3.4591    1.9063    0.0000 C   0  0  0  0  0  0  0  0  0  0  0  0
   -2.7447    2.3188    0.0000 C   0  0  0  0  0  0  0  0  0  0  0  0
   -1.3157    2.3188    0.0000 S   0  0  0  0  0  0  0  0  0  0  0  0
   -1.7282    3.0333    0.0000 O   0  0  0  0  0  0  0  0  0  0  0  0
   -0.9032    1.6043    0.0000 O   0  0  0  0  0  0  0  0  0  0  0  0
   -0.6012    2.7313    0.0000 C   0  0  0  0  0  0  0  0  0  0  0  0
   -0.6012    3.5563    0.0000 C   0  0  0  0  0  0  0  0  0  0  0  0
    0.1132    2.3188    0.0000 C   0  0  0  0  0  0  0  0  0  0  0  0
   -1.3157    0.6688    0.0000 N   0  0  0  0  0  0  0  0  0  0  0  0
   -1.3157   -0.1562    0.0000 C   0  0  0  0  0  0  0  0  0  0  0  0
   -2.0302   -0.5687    0.0000 C   0  0  0  0  0  0  0  0  0  0  0  0
   -2.0302   -1.3937    0.0000 C   0  0  0  0  0  0  0  0  0  0  0  0
   -1.3157   -1.8062    0.0000 N   0  0  0  0  0  0  0  0  0  0  0  0
   -0.6012   -1.3937    0.0000 C   0  0  0  0  0  0  0  0  0  0  0  0
   -0.6012   -0.5687    0.0000 N   0  0  0  0  0  0  0  0  0  0  0  0
   -2.7447   -0.1562    0.0000 Cl  0  0  0  0  0  0  0  0  0  0  0  0
    0.1132   -1.8062    0.0000 N   0  0  0  0  0  0  0  0  0  0  0  0
    0.9101   -1.5927    0.0000 C   0  0  0  0  0  0  0  0  0  0  0  0
    1.4935   -2.1760    0.0000 C   0  0  0  0  0  0  0  0  0  0  0  0
    2.2904   -1.9625    0.0000 C   0  0  0  0  0  0  0  0  0  0  0  0
    2.5039   -1.1656    0.0000 C   0  0  0  0  0  0  0  0  0  0  0  0
    1.9205   -0.5823    0.0000 C   0  0  0  0  0  0  0  0  0  0  0  0
    1.1236   -0.7958    0.0000 C   0  0  0  0  0  0  0  0  0  0  0  0
    1.2800   -2.9729    0.0000 O   0  0  0  0  0  0  0  0  0  0  0  0
    1.8633   -3.5563    0.0000 C   0  0  0  0  0  0  0  0  0  0  0  0
    2.1341    0.2146    0.0000 C   0  0  0  0  0  0  0  0  0  0  0  0
    1.5507    0.7980    0.0000 C   0  0  0  0  0  0  0  0  0  0  0  0
    2.7379   -0.3475    0.0000 C   0  0  0  0  0  0  0  0  0  0  0  0
    3.4591    0.0531    0.0000 C   0  0  0  0  0  0  0  0  0  0  0  0
    3.3010    0.8628    0.0000 C   0  0  0  0  0  0  0  0  0  0  0  0
    2.4820    0.9626    0.0000 C   0  0  0  0  0  0  0  0  0  0  0  0
    1.7642    1.5949    0.0000 N   0  0  0  0  0  0  0  0  0  0  0  0
    2.5853    1.6757    0.0000 C   0  0  0  0  0  0  0  0  0  0  0  0
    2.9258    2.4271    0.0000 C   0  0  0  0  0  0  0  0  0  0  0  0
    2.4453    3.0978    0.0000 C   0  0  0  0  0  0  0  0  0  0  0  0
    1.6242    3.0169    0.0000 C   0  0  0  0  0  0  0  0  0  0  0  0
    1.2837    2.2655    0.0000 C   0  0  0  0  0  0  0  0  0  0  0  0
  1  2  4  0  0  0  0
  2  3  4  0  0  0  0
  3  4  4  0  0  0  0
  4  5  4  0  0  0  0
  5  6  4  0  0  0  0
  6  1  4  0  0  0  0
  1  7  1  0  0  0  0
  7  8  2  0  0  0  0
  7  9  2  0  0  0  0
  7 10  1  0  0  0  0
 10 11  1  0  0  0  0
 10 12  1  0  0  0  0
  2 13  1  0  0  0  0
 13 14  1  0  0  0  0
 14 15  4  0  0  0  0
 15 16  4  0  0  0  0
 16 17  4  0  0  0  0
 17 18  4  0  0  0  0
 18 19  4  0  0  0  0
 19 14  4  0  0  0  0
 15 20  1  0  0  0  0
 18 21  1  0  0  0  0
 21 22  1  0  0  0  0
 22 23  4  0  0  0  0
 23 24  4  0  0  0  0
 24 25  4  0  0  0  0
 25 26  4  0  0  0  0
 26 27  4  0  0  0  0
 27 22  4  0  0  0  0
 23 28  1  0  0  0  0
 28 29  1  0  0  0  0
 26 30  1  0  0  0  0
 30 31  1  0  0  0  0
 30 32  1  0  0  0  0
 32 33  1  0  0  0  0
 33 34  1  0  0  0  0
 34 35  1  0  0  0  0
 35 30  1  0  0  0  0
 31 36  1  0  0  0  0
 36 37  1  0  0  0  0
 37 38  1  0  0  0  0
 38 39  1  0  0  0  0
 39 40  1  0  0  0  0
 40 41  1  0  0  0  0
 41 36  1  0  0  0  0
M  END
> <From>
www.bindingDB.org

> <BindingDB Reactant_set_id>
556913

> <Ligand InChI>
InChI=1S/C31H40ClN5O3S/c1-22(2)41(38,39)28-12-6-5-11-25(28)34-29-24(32)20-33-30(36-29)35-26-19-23(13-14-27(26)40-3)31(15-7-8-16-31)21-37-17-9-4-10-18-37/h5-6,11-14,19-20,22H,4,7-10,15-18,21H2,1-3H3,(H2,33,34,35,36)

> <Ligand InChI Key>
OAMNLXSJDHTXLL-UHFFFAOYSA-N

> <BindingDB MonomerID>
291935

> <BindingDB Ligand Name>
US10100019, Example 5

> <Target Name Assigned by Curator or DataSource>
ALK tyrosine kinase receptor

> <Target Source Organism According to Curator or DataSource>
Homo sapiens

> <Ki (nM)>


> <IC50 (nM)>
 150

> <Kd (nM)>


> <EC50 (nM)>


> <kon (M-1-s-1)>


> <koff (s-1)>


> <pH>


> <Temp C>
25.00

> <Curation/DataSource>
US Patent

> <Article DOI>
10.1016/j.bmcl.2006.04.076

> <PMID>


> <PubChem AID>


> <Patent Number>
US10100019

> <Authors>
Kim, P; Kim, HR; Cho, SY; Ha, JD; Jung, HJ; Yun, CS; Hwang, JY; Park, CH; Lee, CO; Ahn, S; Chae, CH

> <Institution>
Korea Research Institute of Chemical Technology

> <Link to Ligand in BindingDB>
http://www.bindingdb.org/bind/chemsearch/marvin/MolStructure.jsp?monomerid=291935

> <Link to Ligand-Target Pair in BindingDB>
http://www.bindingdb.org/jsp/dbsearch/PrimarySearch_ki.jsp?energyterm=kJ/mole&tag=pol&polymerid=5809&target=ALK+tyrosine+kinase+receptor&column=ki&startPg=0&Increment=50&submit=Search

> <Link to Ligand-Target Pair in BindingDB>
http://www.bindingdb.org/jsp/dbsearch/PrimarySearch_ki.jsp?energyterm=kJ/mole&tag=r21&monomerid=291935&enzyme=ALK+tyrosine+kinase+receptor&column=ki&startPg=0&Increment=50&submit=Search

> <Ligand HET ID in PDB>


> <PDB ID(s) for Ligand-Target Complex>


> <PubChem CID>
122629248

> <PubChem SID>
381612234

> <ChEBI ID of Ligand>


> <ChEMBL ID of Ligand>


> <DrugBank ID of Ligand>


> <IUPHAR_GRAC ID of Ligand>


> <KEGG ID of Ligand>


> <ZINC ID of Ligand>


> <Number of Protein Chains in Target (>1 implies a multichain complex)>
1

> <BindingDB Target Chain Sequence>
MGAIGLLWLLPLLLSTAAVGSGMGTGQRAGSPAAGPPLQPREPLSYSRLQRKSLAVDFVVPSLFRVYARDLLLPPSSSELKAGRPEARGSLALDCAPLLRLLGPAPGVSWTAGSPAPAEARTLSRVLKGGSVRKLRRAKQLVLELGEEAILEGCVGPPGEAAVGLLQFNLSELFSWWIRQGEGRLRIRLMPEKKASEVGREGRLSAAIRASQPRLLFQIFGTGHSSLESPTNMPSPSPDYFTWNLTWIMKDSFPFLSHRSRYGLECSFDFPCELEYSPPLHDLRNQSWSWRRIPSEEASQMDLLDGPGAERSKEMPRGSFLLLNTSADSKHTILSPWMRSSSEHCTLAVSVHRHLQPSGRYIAQLLPHNEAAREILLMPTPGKHGWTVLQGRIGRPDNPFRVALEYISSGNRSLSAVDFFALKNCSEGTSPGSKMALQSSFTCWNGTVLQLGQACDFHQDCAQGEDESQMCRKLPVGFYCNFEDGFCGWTQGTLSPHTPQWQVRTLKDARFQDHQDHALLLSTTDVPASESATVTSATFPAPIKSSPCELRMSWLIRGVLRGNVSLVLVENKTGKEQGRMVWHVAAYEGLSLWQWMVLPLLDVSDRFWLQMVAWWGQGSRAIVAFDNISISLDCYLTISGEDKILQNTAPKSRNLFERNPNKELKPGENSPRQTPIFDPTVHWLFTTCGASGPHGPTQAQCNNAYQNSNLSVEVGSEGPLKGIQIWKVPATDTYSISGYGAAGGKGGKNTMMRSHGVSVLGIFNLEKDDMLYILVGQQGEDACPSTNQLIQKVCIGENNVIEEEIRVNRSVHEWAGGGGGGGGATYVFKMKDGVPVPLIIAAGGGGRAYGAKTDTFHPERLENNSSVLGLNGNSGAAGGGGGWNDNTSLLWAGKSLQEGATGGHSCPQAMKKWGWETRGGFGGGGGGCSSGGGGGGYIGGNAASNNDPEMDGEDGVSFISPLGILYTPALKVMEGHGEVNIKHYLNCSHCEVDECHMDPESHKVICFCDHGTVLAEDGVSCIVSPTPEPHLPLSLILSVVTSALVAALVLAFSGIMIVYRRKHQELQAMQMELQSPEYKLSKLRTSTIMTDYNPNYCFAGKTSSISDLKEVPRKNITLIRGLGHGAFGEVYEGQVSGMPNDPSPLQVAVKTLPEVCSEQDELDFLMEALIISKFNHQNIVRCIGVSLQSLPRFILLELMAGGDLKSFLRETRPRPSQPSSLAMLDLLHVARDIACGCQYLEENHFIHRDIAARNCLLTCPGPGRVAKIGDFGMARDIYRASYYRKGGCAMLPVKWMPPEAFMEGIFTSKTDTWSFGVLLWEIFSLGYMPYPSKSNQEVLEFVTSGGRMDPPKNCPGPVYRIMTQCWQHQPEDRPNFAIILERIEYCTQDPDVINTALPIEYGPLVEEEEKVPVRPKDPEGVPPLLVSQQAKREEERSPAAPPPLPTTSSGKAAKKPTAAEISVRVPRGPAVEGGHVNMAFSQSNPPSELHKVHGSRNKPTSLWNPTYGSWFTEKPTKKNNPIAKKEPHDRGNLGLEGSCTVPPNVATGRLPGASLLLEPSSLTANMKEVPLFRLRHFPCGNVNYGYQQQGLPLEAATAPGAGHYEDTILKSKNSMNQPGP

> <PDB ID(s) of Target Chain>
2XB7,2XBA,3AOX,5FTO,5FTQ,6E0R,6EBW,6EDL,6MX8

> <UniProt (SwissProt) Recommended Name of Target Chain>
ALK tyrosine kinase receptor

> <UniProt (SwissProt) Entry Name of Target Chain>
ALK_HUMAN

> <UniProt (SwissProt) Primary ID of Target Chain>
Q9UM73

> <UniProt (SwissProt) Secondary ID(s) of Target Chain>
Q4ZFX9,Q53QQ6,Q53RZ4,Q59FI3,Q9Y4K6

> <UniProt (SwissProt) Alternative ID(s) of Target Chain>


> <UniProt (TrEMBL) Submitted Name of Target Chain>


> <UniProt (TrEMBL) Entry Name of Target Chain>


> <UniProt (TrEMBL) Primary ID of Target Chain>


> <UniProt (TrEMBL) Secondary ID(s) of Target Chain>


> <UniProt (TrEMBL) Alternative ID(s) of Target Chain>


$$$$
00142001.cdx
  Mrv0541 02211919242D          

 41 45  0  0  0  0            999 V2000
   -2.0302    1.9063    0.0000 C   0  0  0  0  0  0  0  0  0  0  0  0
   -2.0302    1.0813    0.0000 C   0  0  0  0  0  0  0  0  0  0  0  0
   -2.7447    0.6688    0.0000 C   0  0  0  0  0  0  0  0  0  0  0  0
   -3.4591    1.0813    0.0000 C   0  0  0  0  0  0  0  0  0  0  0  0
   -3.4591    1.9063    0.0000 C   0  0  0  0  0  0  0  0  0  0  0  0
   -2.7447    2.3188    0.0000 C   0  0  0  0  0  0  0  0  0  0  0  0
   -1.3157    2.3188    0.0000 S   0  0  0  0  0  0  0  0  0  0  0  0
   -1.7282    3.0333    0.0000 O   0  0  0  0  0  0  0  0  0  0  0  0
   -0.9032    1.6043    0.0000 O   0  0  0  0  0  0  0  0  0  0  0  0
   -0.6012    2.7313    0.0000 C   0  0  0  0  0  0  0  0  0  0  0  0
   -0.6012    3.5563    0.0000 C   0  0  0  0  0  0  0  0  0  0  0  0
    0.1132    2.3188    0.0000 C   0  0  0  0  0  0  0  0  0  0  0  0
   -1.3157    0.6688    0.0000 N   0  0  0  0  0  0  0  0  0  0  0  0
   -1.3157   -0.1562    0.0000 C   0  0  0  0  0  0  0  0  0  0  0  0
   -2.0302   -0.5687    0.0000 C   0  0  0  0  0  0  0  0  0  0  0  0
   -2.0302   -1.3937    0.0000 C   0  0  0  0  0  0  0  0  0  0  0  0
   -1.3157   -1.8062    0.0000 N   0  0  0  0  0  0  0  0  0  0  0  0
   -0.6012   -1.3937    0.0000 C   0  0  0  0  0  0  0  0  0  0  0  0
   -0.6012   -0.5687    0.0000 N   0  0  0  0  0  0  0  0  0  0  0  0
   -2.7447   -0.1562    0.0000 Cl  0  0  0  0  0  0  0  0  0  0  0  0
    0.1132   -1.8062    0.0000 N   0  0  0  0  0  0  0  0  0  0  0  0
    0.9101   -1.5927    0.0000 C   0  0  0  0  0  0  0  0  0  0  0  0
    1.4935   -2.1760    0.0000 C   0  0  0  0  0  0  0  0  0  0  0  0
    2.2904   -1.9625    0.0000 C   0  0  0  0  0  0  0  0  0  0  0  0
    2.5039   -1.1656    0.0000 C   0  0  0  0  0  0  0  0  0  0  0  0
    1.9205   -0.5823    0.0000 C   0  0  0  0  0  0  0  0  0  0  0  0
    1.1236   -0.7958    0.0000 C   0  0  0  0  0  0  0  0  0  0  0  0
    1.2800   -2.9729    0.0000 O   0  0  0  0  0  0  0  0  0  0  0  0
    1.8633   -3.5563    0.0000 C   0  0  0  0  0  0  0  0  0  0  0  0
    2.1341    0.2146    0.0000 C   0  0  0  0  0  0  0  0  0  0  0  0
    1.5507    0.7980    0.0000 C   0  0  0  0  0  0  0  0  0  0  0  0
    2.7379   -0.3475    0.0000 C   0  0  0  0  0  0  0  0  0  0  0  0
    3.4591    0.0531    0.0000 C   0  0  0  0  0  0  0  0  0  0  0  0
    3.3010    0.8628    0.0000 C   0  0  0  0  0  0  0  0  0  0  0  0
    2.4820    0.9626    0.0000 C   0  0  0  0  0  0  0  0  0  0  0  0
    1.7642    1.5949    0.0000 N   0  0  0  0  0  0  0  0  0  0  0  0
    2.5853    1.6757    0.0000 C   0  0  0  0  0  0  0  0  0  0  0  0
    2.9258    2.4271    0.0000 C   0  0  0  0  0  0  0  0  0  0  0  0
    2.4453    3.0978    0.0000 O   0  0  0  0  0  0  0  0  0  0  0  0
    1.6242    3.0169    0.0000 C   0  0  0  0  0  0  0  0  0  0  0  0
    1.2837    2.2655    0.0000 C   0  0  0  0  0  0  0  0  0  0  0  0
  1  2  4  0  0  0  0
  2  3  4  0  0  0  0
  3  4  4  0  0  0  0
  4  5  4  0  0  0  0
  5  6  4  0  0  0  0
  6  1  4  0  0  0  0
  1  7  1  0  0  0  0
  7  8  2  0  0  0  0
  7  9  2  0  0  0  0
  7 10  1  0  0  0  0
 10 11  1  0  0  0  0
 10 12  1  0  0  0  0
  2 13  1  0  0  0  0
 13 14  1  0  0  0  0
 14 15  4  0  0  0  0
 15 16  4  0  0  0  0
 16 17  4  0  0  0  0
 17 18  4  0  0  0  0
 18 19  4  0  0  0  0
 19 14  4  0  0  0  0
 15 20  1  0  0  0  0
 18 21  1  0  0  0  0
 21 22  1  0  0  0  0
 22 23  4  0  0  0  0
 23 24  4  0  0  0  0
 24 25  4  0  0  0  0
 25 26  4  0  0  0  0
 26 27  4  0  0  0  0
 27 22  4  0  0  0  0
 23 28  1  0  0  0  0
 28 29  1  0  0  0  0
 26 30  1  0  0  0  0
 30 31  1  0  0  0  0
 30 32  1  0  0  0  0
 32 33  1  0  0  0  0
 33 34  1  0  0  0  0
 34 35  1  0  0  0  0
 35 30  1  0  0  0  0
 31 36  1  0  0  0  0
 36 37  1  0  0  0  0
 37 38  1  0  0  0  0
 38 39  1  0  0  0  0
 39 40  1  0  0  0  0
 40 41  1  0  0  0  0
 41 36  1  0  0  0  0
M  END
> <From>
www.bindingDB.org

> <BindingDB Reactant_set_id>
556914

> <Ligand InChI>
InChI=1S/C30H38ClN5O4S/c1-21(2)41(37,38)27-9-5-4-8-24(27)33-28-23(31)19-32-29(35-28)34-25-18-22(10-11-26(25)39-3)30(12-6-7-13-30)20-36-14-16-40-17-15-36/h4-5,8-11,18-19,21H,6-7,12-17,20H2,1-3H3,(H2,32,33,34,35)

> <Ligand InChI Key>
KIIBROQWALMGMP-UHFFFAOYSA-N

> <BindingDB MonomerID>
291936

> <BindingDB Ligand Name>
US10100019, Example 6

> <Target Name Assigned by Curator or DataSource>
ALK tyrosine kinase receptor

> <Target Source Organism According to Curator or DataSource>
Homo sapiens

> <Ki (nM)>


> <IC50 (nM)>
 160

> <Kd (nM)>


> <EC50 (nM)>


> <kon (M-1-s-1)>


> <koff (s-1)>


> <pH>


> <Temp C>
25.00

> <Curation/DataSource>
US Patent

> <Article DOI>
10.1016/j.bmcl.2006.04.076

> <PMID>


> <PubChem AID>


> <Patent Number>
US10100019

> <Authors>
Kim, P; Kim, HR; Cho, SY; Ha, JD; Jung, HJ; Yun, CS; Hwang, JY; Park, CH; Lee, CO; Ahn, S; Chae, CH

> <Institution>
Korea Research Institute of Chemical Technology

> <Link to Ligand in BindingDB>
http://www.bindingdb.org/bind/chemsearch/marvin/MolStructure.jsp?monomerid=291936

> <Link to Ligand-Target Pair in BindingDB>
http://www.bindingdb.org/jsp/dbsearch/PrimarySearch_ki.jsp?energyterm=kJ/mole&tag=pol&polymerid=5809&target=ALK+tyrosine+kinase+receptor&column=ki&startPg=0&Increment=50&submit=Search

> <Link to Ligand-Target Pair in BindingDB>
http://www.bindingdb.org/jsp/dbsearch/PrimarySearch_ki.jsp?energyterm=kJ/mole&tag=r21&monomerid=291936&enzyme=ALK+tyrosine+kinase+receptor&column=ki&startPg=0&Increment=50&submit=Search

> <Ligand HET ID in PDB>


> <PDB ID(s) for Ligand-Target Complex>


> <PubChem CID>
122629218

> <PubChem SID>
381612235

> <ChEBI ID of Ligand>


> <ChEMBL ID of Ligand>


> <DrugBank ID of Ligand>


> <IUPHAR_GRAC ID of Ligand>


> <KEGG ID of Ligand>


> <ZINC ID of Ligand>


> <Number of Protein Chains in Target (>1 implies a multichain complex)>
1

> <BindingDB Target Chain Sequence>
MGAIGLLWLLPLLLSTAAVGSGMGTGQRAGSPAAGPPLQPREPLSYSRLQRKSLAVDFVVPSLFRVYARDLLLPPSSSELKAGRPEARGSLALDCAPLLRLLGPAPGVSWTAGSPAPAEARTLSRVLKGGSVRKLRRAKQLVLELGEEAILEGCVGPPGEAAVGLLQFNLSELFSWWIRQGEGRLRIRLMPEKKASEVGREGRLSAAIRASQPRLLFQIFGTGHSSLESPTNMPSPSPDYFTWNLTWIMKDSFPFLSHRSRYGLECSFDFPCELEYSPPLHDLRNQSWSWRRIPSEEASQMDLLDGPGAERSKEMPRGSFLLLNTSADSKHTILSPWMRSSSEHCTLAVSVHRHLQPSGRYIAQLLPHNEAAREILLMPTPGKHGWTVLQGRIGRPDNPFRVALEYISSGNRSLSAVDFFALKNCSEGTSPGSKMALQSSFTCWNGTVLQLGQACDFHQDCAQGEDESQMCRKLPVGFYCNFEDGFCGWTQGTLSPHTPQWQVRTLKDARFQDHQDHALLLSTTDVPASESATVTSATFPAPIKSSPCELRMSWLIRGVLRGNVSLVLVENKTGKEQGRMVWHVAAYEGLSLWQWMVLPLLDVSDRFWLQMVAWWGQGSRAIVAFDNISISLDCYLTISGEDKILQNTAPKSRNLFERNPNKELKPGENSPRQTPIFDPTVHWLFTTCGASGPHGPTQAQCNNAYQNSNLSVEVGSEGPLKGIQIWKVPATDTYSISGYGAAGGKGGKNTMMRSHGVSVLGIFNLEKDDMLYILVGQQGEDACPSTNQLIQKVCIGENNVIEEEIRVNRSVHEWAGGGGGGGGATYVFKMKDGVPVPLIIAAGGGGRAYGAKTDTFHPERLENNSSVLGLNGNSGAAGGGGGWNDNTSLLWAGKSLQEGATGGHSCPQAMKKWGWETRGGFGGGGGGCSSGGGGGGYIGGNAASNNDPEMDGEDGVSFISPLGILYTPALKVMEGHGEVNIKHYLNCSHCEVDECHMDPESHKVICFCDHGTVLAEDGVSCIVSPTPEPHLPLSLILSVVTSALVAALVLAFSGIMIVYRRKHQELQAMQMELQSPEYKLSKLRTSTIMTDYNPNYCFAGKTSSISDLKEVPRKNITLIRGLGHGAFGEVYEGQVSGMPNDPSPLQVAVKTLPEVCSEQDELDFLMEALIISKFNHQNIVRCIGVSLQSLPRFILLELMAGGDLKSFLRETRPRPSQPSSLAMLDLLHVARDIACGCQYLEENHFIHRDIAARNCLLTCPGPGRVAKIGDFGMARDIYRASYYRKGGCAMLPVKWMPPEAFMEGIFTSKTDTWSFGVLLWEIFSLGYMPYPSKSNQEVLEFVTSGGRMDPPKNCPGPVYRIMTQCWQHQPEDRPNFAIILERIEYCTQDPDVINTALPIEYGPLVEEEEKVPVRPKDPEGVPPLLVSQQAKREEERSPAAPPPLPTTSSGKAAKKPTAAEISVRVPRGPAVEGGHVNMAFSQSNPPSELHKVHGSRNKPTSLWNPTYGSWFTEKPTKKNNPIAKKEPHDRGNLGLEGSCTVPPNVATGRLPGASLLLEPSSLTANMKEVPLFRLRHFPCGNVNYGYQQQGLPLEAATAPGAGHYEDTILKSKNSMNQPGP

> <PDB ID(s) of Target Chain>
2XB7,2XBA,3AOX,5FTO,5FTQ,6E0R,6EBW,6EDL,6MX8

> <UniProt (SwissProt) Recommended Name of Target Chain>
ALK tyrosine kinase receptor

> <UniProt (SwissProt) Entry Name of Target Chain>
ALK_HUMAN

> <UniProt (SwissProt) Primary ID of Target Chain>
Q9UM73

> <UniProt (SwissProt) Secondary ID(s) of Target Chain>
Q4ZFX9,Q53QQ6,Q53RZ4,Q59FI3,Q9Y4K6

> <UniProt (SwissProt) Alternative ID(s) of Target Chain>


> <UniProt (TrEMBL) Submitted Name of Target Chain>


> <UniProt (TrEMBL) Entry Name of Target Chain>


> <UniProt (TrEMBL) Primary ID of Target Chain>


> <UniProt (TrEMBL) Secondary ID(s) of Target Chain>


> <UniProt (TrEMBL) Alternative ID(s) of Target Chain>


$$$$
00138001.cdx
  Mrv0541 02211919242D          

 33 35  0  0  0  0            999 V2000
   -1.7862    1.6500    0.0000 C   0  0  0  0  0  0  0  0  0  0  0  0
   -1.7862    0.8250    0.0000 C   0  0  0  0  0  0  0  0  0  0  0  0
   -2.5006    0.4125    0.0000 C   0  0  0  0  0  0  0  0  0  0  0  0
   -3.2151    0.8250    0.0000 C   0  0  0  0  0  0  0  0  0  0  0  0
   -3.2151    1.6500    0.0000 C   0  0  0  0  0  0  0  0  0  0  0  0
   -2.5006    2.0625    0.0000 C   0  0  0  0  0  0  0  0  0  0  0  0
   -1.0717    2.0625    0.0000 S   0  0  0  0  0  0  0  0  0  0  0  0
   -1.4842    2.7770    0.0000 O   0  0  0  0  0  0  0  0  0  0  0  0
   -0.6592    1.3480    0.0000 O   0  0  0  0  0  0  0  0  0  0  0  0
   -0.3572    2.4750    0.0000 C   0  0  0  0  0  0  0  0  0  0  0  0
   -0.3572    3.3000    0.0000 C   0  0  0  0  0  0  0  0  0  0  0  0
    0.3572    2.0625    0.0000 C   0  0  0  0  0  0  0  0  0  0  0  0
   -1.0717    0.4125    0.0000 N   0  0  0  0  0  0  0  0  0  0  0  0
   -1.0717   -0.4125    0.0000 C   0  0  0  0  0  0  0  0  0  0  0  0
   -1.7862   -0.8250    0.0000 C   0  0  0  0  0  0  0  0  0  0  0  0
   -1.7862   -1.6500    0.0000 C   0  0  0  0  0  0  0  0  0  0  0  0
   -1.0717   -2.0625    0.0000 N   0  0  0  0  0  0  0  0  0  0  0  0
   -0.3572   -1.6500    0.0000 C   0  0  0  0  0  0  0  0  0  0  0  0
   -0.3572   -0.8250    0.0000 N   0  0  0  0  0  0  0  0  0  0  0  0
   -2.5006   -0.4125    0.0000 Cl  0  0  0  0  0  0  0  0  0  0  0  0
    0.3572   -2.0625    0.0000 N   0  0  0  0  0  0  0  0  0  0  0  0
    1.0717   -1.6500    0.0000 C   0  0  0  0  0  0  0  0  0  0  0  0
    1.0717   -0.8250    0.0000 C   0  0  0  0  0  0  0  0  0  0  0  0
    1.7862   -2.0625    0.0000 C   0  0  0  0  0  0  0  0  0  0  0  0
    2.5006   -1.6500    0.0000 C   0  0  0  0  0  0  0  0  0  0  0  0
    2.5006   -0.8250    0.0000 C   0  0  0  0  0  0  0  0  0  0  0  0
    1.7862   -0.4125    0.0000 C   0  0  0  0  0  0  0  0  0  0  0  0
    1.7862   -2.8875    0.0000 O   0  0  0  0  0  0  0  0  0  0  0  0
    2.5006   -3.3000    0.0000 C   0  0  0  0  0  0  0  0  0  0  0  0
    1.7862    0.4125    0.0000 N   0  0  0  0  0  0  0  0  0  0  0  0
    2.5006    0.8250    0.0000 C   0  0  0  0  0  0  0  0  0  0  0  0
    3.2151    0.4125    0.0000 C   0  0  0  0  0  0  0  0  0  0  0  0
    2.5006    1.6500    0.0000 O   0  0  0  0  0  0  0  0  0  0  0  0
  1  2  4  0  0  0  0
  2  3  4  0  0  0  0
  3  4  4  0  0  0  0
  4  5  4  0  0  0  0
  5  6  4  0  0  0  0
  6  1  4  0  0  0  0
  1  7  1  0  0  0  0
  7  8  2  0  0  0  0
  7  9  2  0  0  0  0
  7 10  1  0  0  0  0
 10 11  1  0  0  0  0
 10 12  1  0  0  0  0
  2 13  1  0  0  0  0
 13 14  1  0  0  0  0
 14 15  4  0  0  0  0
 15 16  4  0  0  0  0
 16 17  4  0  0  0  0
 17 18  4  0  0  0  0
 18 19  4  0  0  0  0
 19 14  4  0  0  0  0
 15 20  1  0  0  0  0
 18 21  1  0  0  0  0
 21 22  1  0  0  0  0
 22 23  4  0  0  0  0
 22 24  4  0  0  0  0
 24 25  4  0  0  0  0
 25 26  4  0  0  0  0
 26 27  4  0  0  0  0
 27 23  4  0  0  0  0
 24 28  1  0  0  0  0
 28 29  1  0  0  0  0
 27 30  1  0  0  0  0
 30 31  1  0  0  0  0
 31 32  1  0  0  0  0
 31 33  2  0  0  0  0
M  END
> <From>
www.bindingDB.org

> <BindingDB Reactant_set_id>
556915

> <Ligand InChI>
InChI=1S/C22H24ClN5O4S/c1-13(2)33(30,31)20-8-6-5-7-17(20)26-21-16(23)12-24-22(28-21)27-18-11-15(25-14(3)29)9-10-19(18)32-4/h5-13H,1-4H3,(H,25,29)(H2,24,26,27,28)

> <Ligand InChI Key>
ITNPURPVZHRALQ-UHFFFAOYSA-N

> <BindingDB MonomerID>
291937

> <BindingDB Ligand Name>
US10100019, Example 7

> <Target Name Assigned by Curator or DataSource>
ALK tyrosine kinase receptor

> <Target Source Organism According to Curator or DataSource>
Homo sapiens

> <Ki (nM)>


> <IC50 (nM)>
 10.00

> <Kd (nM)>


> <EC50 (nM)>


> <kon (M-1-s-1)>


> <koff (s-1)>


> <pH>


> <Temp C>
25.00

> <Curation/DataSource>
US Patent

> <Article DOI>
10.1016/j.bmcl.2006.04.076

> <PMID>


> <PubChem AID>


> <Patent Number>
US10100019

> <Authors>
Kim, P; Kim, HR; Cho, SY; Ha, JD; Jung, HJ; Yun, CS; Hwang, JY; Park, CH; Lee, CO; Ahn, S; Chae, CH

> <Institution>
Korea Research Institute of Chemical Technology

> <Link to Ligand in BindingDB>
http://www.bindingdb.org/bind/chemsearch/marvin/MolStructure.jsp?monomerid=291937

> <Link to Ligand-Target Pair in BindingDB>
http://www.bindingdb.org/jsp/dbsearch/PrimarySearch_ki.jsp?energyterm=kJ/mole&tag=pol&polymerid=5809&target=ALK+tyrosine+kinase+receptor&column=ki&startPg=0&Increment=50&submit=Search

> <Link to Ligand-Target Pair in BindingDB>
http://www.bindingdb.org/jsp/dbsearch/PrimarySearch_ki.jsp?energyterm=kJ/mole&tag=r21&monomerid=291937&enzyme=ALK+tyrosine+kinase+receptor&column=ki&startPg=0&Increment=50&submit=Search

> <Ligand HET ID in PDB>


> <PDB ID(s) for Ligand-Target Complex>


> <PubChem CID>
134449993

> <PubChem SID>
381612236

> <ChEBI ID of Ligand>


> <ChEMBL ID of Ligand>


> <DrugBank ID of Ligand>


> <IUPHAR_GRAC ID of Ligand>


> <KEGG ID of Ligand>


> <ZINC ID of Ligand>


> <Number of Protein Chains in Target (>1 implies a multichain complex)>
1

> <BindingDB Target Chain Sequence>
MGAIGLLWLLPLLLSTAAVGSGMGTGQRAGSPAAGPPLQPREPLSYSRLQRKSLAVDFVVPSLFRVYARDLLLPPSSSELKAGRPEARGSLALDCAPLLRLLGPAPGVSWTAGSPAPAEARTLSRVLKGGSVRKLRRAKQLVLELGEEAILEGCVGPPGEAAVGLLQFNLSELFSWWIRQGEGRLRIRLMPEKKASEVGREGRLSAAIRASQPRLLFQIFGTGHSSLESPTNMPSPSPDYFTWNLTWIMKDSFPFLSHRSRYGLECSFDFPCELEYSPPLHDLRNQSWSWRRIPSEEASQMDLLDGPGAERSKEMPRGSFLLLNTSADSKHTILSPWMRSSSEHCTLAVSVHRHLQPSGRYIAQLLPHNEAAREILLMPTPGKHGWTVLQGRIGRPDNPFRVALEYISSGNRSLSAVDFFALKNCSEGTSPGSKMALQSSFTCWNGTVLQLGQACDFHQDCAQGEDESQMCRKLPVGFYCNFEDGFCGWTQGTLSPHTPQWQVRTLKDARFQDHQDHALLLSTTDVPASESATVTSATFPAPIKSSPCELRMSWLIRGVLRGNVSLVLVENKTGKEQGRMVWHVAAYEGLSLWQWMVLPLLDVSDRFWLQMVAWWGQGSRAIVAFDNISISLDCYLTISGEDKILQNTAPKSRNLFERNPNKELKPGENSPRQTPIFDPTVHWLFTTCGASGPHGPTQAQCNNAYQNSNLSVEVGSEGPLKGIQIWKVPATDTYSISGYGAAGGKGGKNTMMRSHGVSVLGIFNLEKDDMLYILVGQQGEDACPSTNQLIQKVCIGENNVIEEEIRVNRSVHEWAGGGGGGGGATYVFKMKDGVPVPLIIAAGGGGRAYGAKTDTFHPERLENNSSVLGLNGNSGAAGGGGGWNDNTSLLWAGKSLQEGATGGHSCPQAMKKWGWETRGGFGGGGGGCSSGGGGGGYIGGNAASNNDPEMDGEDGVSFISPLGILYTPALKVMEGHGEVNIKHYLNCSHCEVDECHMDPESHKVICFCDHGTVLAEDGVSCIVSPTPEPHLPLSLILSVVTSALVAALVLAFSGIMIVYRRKHQELQAMQMELQSPEYKLSKLRTSTIMTDYNPNYCFAGKTSSISDLKEVPRKNITLIRGLGHGAFGEVYEGQVSGMPNDPSPLQVAVKTLPEVCSEQDELDFLMEALIISKFNHQNIVRCIGVSLQSLPRFILLELMAGGDLKSFLRETRPRPSQPSSLAMLDLLHVARDIACGCQYLEENHFIHRDIAARNCLLTCPGPGRVAKIGDFGMARDIYRASYYRKGGCAMLPVKWMPPEAFMEGIFTSKTDTWSFGVLLWEIFSLGYMPYPSKSNQEVLEFVTSGGRMDPPKNCPGPVYRIMTQCWQHQPEDRPNFAIILERIEYCTQDPDVINTALPIEYGPLVEEEEKVPVRPKDPEGVPPLLVSQQAKREEERSPAAPPPLPTTSSGKAAKKPTAAEISVRVPRGPAVEGGHVNMAFSQSNPPSELHKVHGSRNKPTSLWNPTYGSWFTEKPTKKNNPIAKKEPHDRGNLGLEGSCTVPPNVATGRLPGASLLLEPSSLTANMKEVPLFRLRHFPCGNVNYGYQQQGLPLEAATAPGAGHYEDTILKSKNSMNQPGP

> <PDB ID(s) of Target Chain>
2XB7,2XBA,3AOX,5FTO,5FTQ,6E0R,6EBW,6EDL,6MX8

> <UniProt (SwissProt) Recommended Name of Target Chain>
ALK tyrosine kinase receptor

> <UniProt (SwissProt) Entry Name of Target Chain>
ALK_HUMAN

> <UniProt (SwissProt) Primary ID of Target Chain>
Q9UM73

> <UniProt (SwissProt) Secondary ID(s) of Target Chain>
Q4ZFX9,Q53QQ6,Q53RZ4,Q59FI3,Q9Y4K6

> <UniProt (SwissProt) Alternative ID(s) of Target Chain>


> <UniProt (TrEMBL) Submitted Name of Target Chain>


> <UniProt (TrEMBL) Entry Name of Target Chain>


> <UniProt (TrEMBL) Primary ID of Target Chain>


> <UniProt (TrEMBL) Secondary ID(s) of Target Chain>


> <UniProt (TrEMBL) Alternative ID(s) of Target Chain>


$$$$
00143001.cdx
  Mrv0541 02211919242D          

 36 38  0  0  0  0            999 V2000
   -2.1434    1.6500    0.0000 C   0  0  0  0  0  0  0  0  0  0  0  0
   -2.1434    0.8250    0.0000 C   0  0  0  0  0  0  0  0  0  0  0  0
   -2.8579    0.4125    0.0000 C   0  0  0  0  0  0  0  0  0  0  0  0
   -3.5724    0.8250    0.0000 C   0  0  0  0  0  0  0  0  0  0  0  0
   -3.5724    1.6500    0.0000 C   0  0  0  0  0  0  0  0  0  0  0  0
   -2.8579    2.0625    0.0000 C   0  0  0  0  0  0  0  0  0  0  0  0
   -1.4289    2.0625    0.0000 S   0  0  0  0  0  0  0  0  0  0  0  0
   -1.8414    2.7770    0.0000 O   0  0  0  0  0  0  0  0  0  0  0  0
   -1.0164    1.3480    0.0000 O   0  0  0  0  0  0  0  0  0  0  0  0
   -0.7145    2.4750    0.0000 C   0  0  0  0  0  0  0  0  0  0  0  0
   -0.7145    3.3000    0.0000 C   0  0  0  0  0  0  0  0  0  0  0  0
    0.0000    2.0625    0.0000 C   0  0  0  0  0  0  0  0  0  0  0  0
   -1.4289    0.4125    0.0000 N   0  0  0  0  0  0  0  0  0  0  0  0
   -1.4289   -0.4125    0.0000 C   0  0  0  0  0  0  0  0  0  0  0  0
   -2.1434   -0.8250    0.0000 C   0  0  0  0  0  0  0  0  0  0  0  0
   -2.1434   -1.6500    0.0000 C   0  0  0  0  0  0  0  0  0  0  0  0
   -1.4289   -2.0625    0.0000 N   0  0  0  0  0  0  0  0  0  0  0  0
   -0.7145   -1.6500    0.0000 C   0  0  0  0  0  0  0  0  0  0  0  0
   -0.7145   -0.8250    0.0000 N   0  0  0  0  0  0  0  0  0  0  0  0
   -2.8579   -0.4125    0.0000 Cl  0  0  0  0  0  0  0  0  0  0  0  0
    0.0000   -2.0625    0.0000 N   0  0  0  0  0  0  0  0  0  0  0  0
    0.7145   -1.6500    0.0000 C   0  0  0  0  0  0  0  0  0  0  0  0
    0.7145   -0.8250    0.0000 C   0  0  0  0  0  0  0  0  0  0  0  0
    1.4289   -2.0625    0.0000 C   0  0  0  0  0  0  0  0  0  0  0  0
    2.1434   -1.6500    0.0000 C   0  0  0  0  0  0  0  0  0  0  0  0
    2.1434   -0.8250    0.0000 C   0  0  0  0  0  0  0  0  0  0  0  0
    1.4289   -0.4125    0.0000 C   0  0  0  0  0  0  0  0  0  0  0  0
    1.4289   -2.8875    0.0000 O   0  0  0  0  0  0  0  0  0  0  0  0
    2.1434   -3.3000    0.0000 C   0  0  0  0  0  0  0  0  0  0  0  0
    1.4289    0.4125    0.0000 C   0  0  0  0  0  0  0  0  0  0  0  0
    2.1434    0.8250    0.0000 C   0  0  0  0  0  0  0  0  0  0  0  0
    2.1434    1.6500    0.0000 N   0  0  0  0  0  0  0  0  0  0  0  0
    2.8579    2.0625    0.0000 S   0  0  0  0  0  0  0  0  0  0  0  0
    2.6444    2.8594    0.0000 O   0  0  0  0  0  0  0  0  0  0  0  0
    3.5724    2.4750    0.0000 C   0  0  0  0  0  0  0  0  0  0  0  0
    3.2704    1.3480    0.0000 O   0  0  0  0  0  0  0  0  0  0  0  0
  1  2  4  0  0  0  0
  2  3  4  0  0  0  0
  3  4  4  0  0  0  0
  4  5  4  0  0  0  0
  5  6  4  0  0  0  0
  6  1  4  0  0  0  0
  1  7  1  0  0  0  0
  7  8  2  0  0  0  0
  7  9  2  0  0  0  0
  7 10  1  0  0  0  0
 10 11  1  0  0  0  0
 10 12  1  0  0  0  0
  2 13  1  0  0  0  0
 13 14  1  0  0  0  0
 14 15  4  0  0  0  0
 15 16  4  0  0  0  0
 16 17  4  0  0  0  0
 17 18  4  0  0  0  0
 18 19  4  0  0  0  0
 19 14  4  0  0  0  0
 15 20  1  0  0  0  0
 18 21  1  0  0  0  0
 21 22  1  0  0  0  0
 22 23  4  0  0  0  0
 22 24  4  0  0  0  0
 24 25  4  0  0  0  0
 25 26  4  0  0  0  0
 26 27  4  0  0  0  0
 27 23  4  0  0  0  0
 24 28  1  0  0  0  0
 28 29  1  0  0  0  0
 27 30  1  0  0  0  0
 30 31  1  0  0  0  0
 31 32  1  0  0  0  0
 32 33  1  0  0  0  0
 33 34  2  0  0  0  0
 33 35  1  0  0  0  0
 33 36  2  0  0  0  0
M  END
> <From>
www.bindingDB.org

> <BindingDB Reactant_set_id>
556916

> <Ligand InChI>
InChI=1S/C23H28ClN5O5S2/c1-15(2)36(32,33)21-8-6-5-7-18(21)27-22-17(24)14-25-23(29-22)28-19-13-16(9-10-20(19)34-3)11-12-26-35(4,30)31/h5-10,13-15,26H,11-12H2,1-4H3,(H2,25,27,28,29)

> <Ligand InChI Key>
QRCUKJSISICWNH-UHFFFAOYSA-N

> <BindingDB MonomerID>
291938

> <BindingDB Ligand Name>
US10100019, Example 8

> <Target Name Assigned by Curator or DataSource>
ALK tyrosine kinase receptor

> <Target Source Organism According to Curator or DataSource>
Homo sapiens

> <Ki (nM)>


> <IC50 (nM)>
 10.00

> <Kd (nM)>


> <EC50 (nM)>


> <kon (M-1-s-1)>


> <koff (s-1)>


> <pH>


> <Temp C>
25.00

> <Curation/DataSource>
US Patent

> <Article DOI>
10.1016/j.bmcl.2006.04.076

> <PMID>


> <PubChem AID>


> <Patent Number>
US10100019

> <Authors>
Kim, P; Kim, HR; Cho, SY; Ha, JD; Jung, HJ; Yun, CS; Hwang, JY; Park, CH; Lee, CO; Ahn, S; Chae, CH

> <Institution>
Korea Research Institute of Chemical Technology

> <Link to Ligand in BindingDB>
http://www.bindingdb.org/bind/chemsearch/marvin/MolStructure.jsp?monomerid=291938

> <Link to Ligand-Target Pair in BindingDB>
http://www.bindingdb.org/jsp/dbsearch/PrimarySearch_ki.jsp?energyterm=kJ/mole&tag=pol&polymerid=5809&target=ALK+tyrosine+kinase+receptor&column=ki&startPg=0&Increment=50&submit=Search

> <Link to Ligand-Target Pair in BindingDB>
http://www.bindingdb.org/jsp/dbsearch/PrimarySearch_ki.jsp?energyterm=kJ/mole&tag=r21&monomerid=291938&enzyme=ALK+tyrosine+kinase+receptor&column=ki&startPg=0&Increment=50&submit=Search

> <Ligand HET ID in PDB>


> <PDB ID(s) for Ligand-Target Complex>


> <PubChem CID>
134449917

> <PubChem SID>
381612237

> <ChEBI ID of Ligand>


> <ChEMBL ID of Ligand>


> <DrugBank ID of Ligand>


> <IUPHAR_GRAC ID of Ligand>


> <KEGG ID of Ligand>


> <ZINC ID of Ligand>


> <Number of Protein Chains in Target (>1 implies a multichain complex)>
1

> <BindingDB Target Chain Sequence>
MGAIGLLWLLPLLLSTAAVGSGMGTGQRAGSPAAGPPLQPREPLSYSRLQRKSLAVDFVVPSLFRVYARDLLLPPSSSELKAGRPEARGSLALDCAPLLRLLGPAPGVSWTAGSPAPAEARTLSRVLKGGSVRKLRRAKQLVLELGEEAILEGCVGPPGEAAVGLLQFNLSELFSWWIRQGEGRLRIRLMPEKKASEVGREGRLSAAIRASQPRLLFQIFGTGHSSLESPTNMPSPSPDYFTWNLTWIMKDSFPFLSHRSRYGLECSFDFPCELEYSPPLHDLRNQSWSWRRIPSEEASQMDLLDGPGAERSKEMPRGSFLLLNTSADSKHTILSPWMRSSSEHCTLAVSVHRHLQPSGRYIAQLLPHNEAAREILLMPTPGKHGWTVLQGRIGRPDNPFRVALEYISSGNRSLSAVDFFALKNCSEGTSPGSKMALQSSFTCWNGTVLQLGQACDFHQDCAQGEDESQMCRKLPVGFYCNFEDGFCGWTQGTLSPHTPQWQVRTLKDARFQDHQDHALLLSTTDVPASESATVTSATFPAPIKSSPCELRMSWLIRGVLRGNVSLVLVENKTGKEQGRMVWHVAAYEGLSLWQWMVLPLLDVSDRFWLQMVAWWGQGSRAIVAFDNISISLDCYLTISGEDKILQNTAPKSRNLFERNPNKELKPGENSPRQTPIFDPTVHWLFTTCGASGPHGPTQAQCNNAYQNSNLSVEVGSEGPLKGIQIWKVPATDTYSISGYGAAGGKGGKNTMMRSHGVSVLGIFNLEKDDMLYILVGQQGEDACPSTNQLIQKVCIGENNVIEEEIRVNRSVHEWAGGGGGGGGATYVFKMKDGVPVPLIIAAGGGGRAYGAKTDTFHPERLENNSSVLGLNGNSGAAGGGGGWNDNTSLLWAGKSLQEGATGGHSCPQAMKKWGWETRGGFGGGGGGCSSGGGGGGYIGGNAASNNDPEMDGEDGVSFISPLGILYTPALKVMEGHGEVNIKHYLNCSHCEVDECHMDPESHKVICFCDHGTVLAEDGVSCIVSPTPEPHLPLSLILSVVTSALVAALVLAFSGIMIVYRRKHQELQAMQMELQSPEYKLSKLRTSTIMTDYNPNYCFAGKTSSISDLKEVPRKNITLIRGLGHGAFGEVYEGQVSGMPNDPSPLQVAVKTLPEVCSEQDELDFLMEALIISKFNHQNIVRCIGVSLQSLPRFILLELMAGGDLKSFLRETRPRPSQPSSLAMLDLLHVARDIACGCQYLEENHFIHRDIAARNCLLTCPGPGRVAKIGDFGMARDIYRASYYRKGGCAMLPVKWMPPEAFMEGIFTSKTDTWSFGVLLWEIFSLGYMPYPSKSNQEVLEFVTSGGRMDPPKNCPGPVYRIMTQCWQHQPEDRPNFAIILERIEYCTQDPDVINTALPIEYGPLVEEEEKVPVRPKDPEGVPPLLVSQQAKREEERSPAAPPPLPTTSSGKAAKKPTAAEISVRVPRGPAVEGGHVNMAFSQSNPPSELHKVHGSRNKPTSLWNPTYGSWFTEKPTKKNNPIAKKEPHDRGNLGLEGSCTVPPNVATGRLPGASLLLEPSSLTANMKEVPLFRLRHFPCGNVNYGYQQQGLPLEAATAPGAGHYEDTILKSKNSMNQPGP

> <PDB ID(s) of Target Chain>
2XB7,2XBA,3AOX,5FTO,5FTQ,6E0R,6EBW,6EDL,6MX8

> <UniProt (SwissProt) Recommended Name of Target Chain>
ALK tyrosine kinase receptor

> <UniProt (SwissProt) Entry Name of Target Chain>
ALK_HUMAN

> <UniProt (SwissProt) Primary ID of Target Chain>
Q9UM73

> <UniProt (SwissProt) Secondary ID(s) of Target Chain>
Q4ZFX9,Q53QQ6,Q53RZ4,Q59FI3,Q9Y4K6

> <UniProt (SwissProt) Alternative ID(s) of Target Chain>


> <UniProt (TrEMBL) Submitted Name of Target Chain>


> <UniProt (TrEMBL) Entry Name of Target Chain>


> <UniProt (TrEMBL) Primary ID of Target Chain>


> <UniProt (TrEMBL) Secondary ID(s) of Target Chain>


> <UniProt (TrEMBL) Alternative ID(s) of Target Chain>


$$$$
00139001.cdx
  Mrv0541 02211919242D          

 34 36  0  0  0  0            999 V2000
   -1.7862    1.6500    0.0000 C   0  0  0  0  0  0  0  0  0  0  0  0
   -1.7862    0.8250    0.0000 C   0  0  0  0  0  0  0  0  0  0  0  0
   -2.5006    0.4125    0.0000 C   0  0  0  0  0  0  0  0  0  0  0  0
   -3.2151    0.8250    0.0000 C   0  0  0  0  0  0  0  0  0  0  0  0
   -3.2151    1.6500    0.0000 C   0  0  0  0  0  0  0  0  0  0  0  0
   -2.5006    2.0625    0.0000 C   0  0  0  0  0  0  0  0  0  0  0  0
   -1.0717    2.0625    0.0000 S   0  0  0  0  0  0  0  0  0  0  0  0
   -1.4842    2.7770    0.0000 O   0  0  0  0  0  0  0  0  0  0  0  0
   -0.6592    1.3480    0.0000 O   0  0  0  0  0  0  0  0  0  0  0  0
   -0.3572    2.4750    0.0000 C   0  0  0  0  0  0  0  0  0  0  0  0
   -0.3572    3.3000    0.0000 C   0  0  0  0  0  0  0  0  0  0  0  0
    0.3572    2.0625    0.0000 C   0  0  0  0  0  0  0  0  0  0  0  0
   -1.0717    0.4125    0.0000 N   0  0  0  0  0  0  0  0  0  0  0  0
   -1.0717   -0.4125    0.0000 C   0  0  0  0  0  0  0  0  0  0  0  0
   -1.7862   -0.8250    0.0000 C   0  0  0  0  0  0  0  0  0  0  0  0
   -1.7862   -1.6500    0.0000 C   0  0  0  0  0  0  0  0  0  0  0  0
   -1.0717   -2.0625    0.0000 N   0  0  0  0  0  0  0  0  0  0  0  0
   -0.3572   -1.6500    0.0000 C   0  0  0  0  0  0  0  0  0  0  0  0
   -0.3572   -0.8250    0.0000 N   0  0  0  0  0  0  0  0  0  0  0  0
   -2.5006   -0.4125    0.0000 Cl  0  0  0  0  0  0  0  0  0  0  0  0
    0.3572   -2.0625    0.0000 N   0  0  0  0  0  0  0  0  0  0  0  0
    1.0717   -1.6500    0.0000 C   0  0  0  0  0  0  0  0  0  0  0  0
    1.0717   -0.8250    0.0000 C   0  0  0  0  0  0  0  0  0  0  0  0
    1.7862   -2.0625    0.0000 C   0  0  0  0  0  0  0  0  0  0  0  0
    2.5006   -1.6500    0.0000 C   0  0  0  0  0  0  0  0  0  0  0  0
    2.5006   -0.8250    0.0000 C   0  0  0  0  0  0  0  0  0  0  0  0
    1.7862   -0.4125    0.0000 C   0  0  0  0  0  0  0  0  0  0  0  0
    1.7862   -2.8875    0.0000 O   0  0  0  0  0  0  0  0  0  0  0  0
    2.5006   -3.3000    0.0000 C   0  0  0  0  0  0  0  0  0  0  0  0
    1.7862    0.4125    0.0000 C   0  0  0  0  0  0  0  0  0  0  0  0
    2.5006    0.8250    0.0000 C   0  0  0  0  0  0  0  0  0  0  0  0
    2.5006    1.6500    0.0000 N   0  0  0  0  0  0  0  0  0  0  0  0
    1.7862    2.0625    0.0000 C   0  0  0  0  0  0  0  0  0  0  0  0
    3.2151    2.0625    0.0000 C   0  0  0  0  0  0  0  0  0  0  0  0
  1  2  4  0  0  0  0
  2  3  4  0  0  0  0
  3  4  4  0  0  0  0
  4  5  4  0  0  0  0
  5  6  4  0  0  0  0
  6  1  4  0  0  0  0
  1  7  1  0  0  0  0
  7  8  2  0  0  0  0
  7  9  2  0  0  0  0
  7 10  1  0  0  0  0
 10 11  1  0  0  0  0
 10 12  1  0  0  0  0
  2 13  1  0  0  0  0
 13 14  1  0  0  0  0
 14 15  4  0  0  0  0
 15 16  4  0  0  0  0
 16 17  4  0  0  0  0
 17 18  4  0  0  0  0
 18 19  4  0  0  0  0
 19 14  4  0  0  0  0
 15 20  1  0  0  0  0
 18 21  1  0  0  0  0
 21 22  1  0  0  0  0
 22 23  4  0  0  0  0
 22 24  4  0  0  0  0
 24 25  4  0  0  0  0
 25 26  4  0  0  0  0
 26 27  4  0  0  0  0
 27 23  4  0  0  0  0
 24 28  1  0  0  0  0
 28 29  1  0  0  0  0
 27 30  1  0  0  0  0
 30 31  1  0  0  0  0
 31 32  1  0  0  0  0
 32 33  1  0  0  0  0
 32 34  1  0  0  0  0
M  END
> <From>
www.bindingDB.org

> <BindingDB Reactant_set_id>
556917

> <Ligand InChI>
InChI=1S/C24H30ClN5O3S/c1-16(2)34(31,32)22-9-7-6-8-19(22)27-23-18(25)15-26-24(29-23)28-20-14-17(12-13-30(3)4)10-11-21(20)33-5/h6-11,14-16H,12-13H2,1-5H3,(H2,26,27,28,29)

> <Ligand InChI Key>
AKHXBNQXYOJHSZ-UHFFFAOYSA-N

> <BindingDB MonomerID>
291939

> <BindingDB Ligand Name>
US10100019, Example 9

> <Target Name Assigned by Curator or DataSource>
ALK tyrosine kinase receptor

> <Target Source Organism According to Curator or DataSource>
Homo sapiens

> <Ki (nM)>


> <IC50 (nM)>
 3.70

> <Kd (nM)>


> <EC50 (nM)>


> <kon (M-1-s-1)>


> <koff (s-1)>


> <pH>


> <Temp C>
25.00

> <Curation/DataSource>
US Patent

> <Article DOI>
10.1016/j.bmcl.2006.04.076

> <PMID>


> <PubChem AID>


> <Patent Number>
US10100019

> <Authors>
Kim, P; Kim, HR; Cho, SY; Ha, JD; Jung, HJ; Yun, CS; Hwang, JY; Park, CH; Lee, CO; Ahn, S; Chae, CH

> <Institution>
Korea Research Institute of Chemical Technology

> <Link to Ligand in BindingDB>
http://www.bindingdb.org/bind/chemsearch/marvin/MolStructure.jsp?monomerid=291939

> <Link to Ligand-Target Pair in BindingDB>
http://www.bindingdb.org/jsp/dbsearch/PrimarySearch_ki.jsp?energyterm=kJ/mole&tag=pol&polymerid=5809&target=ALK+tyrosine+kinase+receptor&column=ki&startPg=0&Increment=50&submit=Search

> <Link to Ligand-Target Pair in BindingDB>
http://www.bindingdb.org/jsp/dbsearch/PrimarySearch_ki.jsp?energyterm=kJ/mole&tag=r21&monomerid=291939&enzyme=ALK+tyrosine+kinase+receptor&column=ki&startPg=0&Increment=50&submit=Search

> <Ligand HET ID in PDB>


> <PDB ID(s) for Ligand-Target Complex>


> <PubChem CID>
134449994

> <PubChem SID>
381612238

> <ChEBI ID of Ligand>


> <ChEMBL ID of Ligand>


> <DrugBank ID of Ligand>


> <IUPHAR_GRAC ID of Ligand>


> <KEGG ID of Ligand>


> <ZINC ID of Ligand>


> <Number of Protein Chains in Target (>1 implies a multichain complex)>
1

> <BindingDB Target Chain Sequence>
MGAIGLLWLLPLLLSTAAVGSGMGTGQRAGSPAAGPPLQPREPLSYSRLQRKSLAVDFVVPSLFRVYARDLLLPPSSSELKAGRPEARGSLALDCAPLLRLLGPAPGVSWTAGSPAPAEARTLSRVLKGGSVRKLRRAKQLVLELGEEAILEGCVGPPGEAAVGLLQFNLSELFSWWIRQGEGRLRIRLMPEKKASEVGREGRLSAAIRASQPRLLFQIFGTGHSSLESPTNMPSPSPDYFTWNLTWIMKDSFPFLSHRSRYGLECSFDFPCELEYSPPLHDLRNQSWSWRRIPSEEASQMDLLDGPGAERSKEMPRGSFLLLNTSADSKHTILSPWMRSSSEHCTLAVSVHRHLQPSGRYIAQLLPHNEAAREILLMPTPGKHGWTVLQGRIGRPDNPFRVALEYISSGNRSLSAVDFFALKNCSEGTSPGSKMALQSSFTCWNGTVLQLGQACDFHQDCAQGEDESQMCRKLPVGFYCNFEDGFCGWTQGTLSPHTPQWQVRTLKDARFQDHQDHALLLSTTDVPASESATVTSATFPAPIKSSPCELRMSWLIRGVLRGNVSLVLVENKTGKEQGRMVWHVAAYEGLSLWQWMVLPLLDVSDRFWLQMVAWWGQGSRAIVAFDNISISLDCYLTISGEDKILQNTAPKSRNLFERNPNKELKPGENSPRQTPIFDPTVHWLFTTCGASGPHGPTQAQCNNAYQNSNLSVEVGSEGPLKGIQIWKVPATDTYSISGYGAAGGKGGKNTMMRSHGVSVLGIFNLEKDDMLYILVGQQGEDACPSTNQLIQKVCIGENNVIEEEIRVNRSVHEWAGGGGGGGGATYVFKMKDGVPVPLIIAAGGGGRAYGAKTDTFHPERLENNSSVLGLNGNSGAAGGGGGWNDNTSLLWAGKSLQEGATGGHSCPQAMKKWGWETRGGFGGGGGGCSSGGGGGGYIGGNAASNNDPEMDGEDGVSFISPLGILYTPALKVMEGHGEVNIKHYLNCSHCEVDECHMDPESHKVICFCDHGTVLAEDGVSCIVSPTPEPHLPLSLILSVVTSALVAALVLAFSGIMIVYRRKHQELQAMQMELQSPEYKLSKLRTSTIMTDYNPNYCFAGKTSSISDLKEVPRKNITLIRGLGHGAFGEVYEGQVSGMPNDPSPLQVAVKTLPEVCSEQDELDFLMEALIISKFNHQNIVRCIGVSLQSLPRFILLELMAGGDLKSFLRETRPRPSQPSSLAMLDLLHVARDIACGCQYLEENHFIHRDIAARNCLLTCPGPGRVAKIGDFGMARDIYRASYYRKGGCAMLPVKWMPPEAFMEGIFTSKTDTWSFGVLLWEIFSLGYMPYPSKSNQEVLEFVTSGGRMDPPKNCPGPVYRIMTQCWQHQPEDRPNFAIILERIEYCTQDPDVINTALPIEYGPLVEEEEKVPVRPKDPEGVPPLLVSQQAKREEERSPAAPPPLPTTSSGKAAKKPTAAEISVRVPRGPAVEGGHVNMAFSQSNPPSELHKVHGSRNKPTSLWNPTYGSWFTEKPTKKNNPIAKKEPHDRGNLGLEGSCTVPPNVATGRLPGASLLLEPSSLTANMKEVPLFRLRHFPCGNVNYGYQQQGLPLEAATAPGAGHYEDTILKSKNSMNQPGP

> <PDB ID(s) of Target Chain>
2XB7,2XBA,3AOX,5FTO,5FTQ,6E0R,6EBW,6EDL,6MX8

> <UniProt (SwissProt) Recommended Name of Target Chain>
ALK tyrosine kinase receptor

> <UniProt (SwissProt) Entry Name of Target Chain>
ALK_HUMAN

> <UniProt (SwissProt) Primary ID of Target Chain>
Q9UM73

> <UniProt (SwissProt) Secondary ID(s) of Target Chain>
Q4ZFX9,Q53QQ6,Q53RZ4,Q59FI3,Q9Y4K6

> <UniProt (SwissProt) Alternative ID(s) of Target Chain>


> <UniProt (TrEMBL) Submitted Name of Target Chain>


> <UniProt (TrEMBL) Entry Name of Target Chain>


> <UniProt (TrEMBL) Primary ID of Target Chain>


> <UniProt (TrEMBL) Secondary ID(s) of Target Chain>


> <UniProt (TrEMBL) Alternative ID(s) of Target Chain>


$$$$
00144001.cdx
  Mrv0541 02211919242D          

 33 35  0  0  0  0            999 V2000
   -1.7862    1.6500    0.0000 C   0  0  0  0  0  0  0  0  0  0  0  0
   -1.7862    0.8250    0.0000 C   0  0  0  0  0  0  0  0  0  0  0  0
   -2.5006    0.4125    0.0000 C   0  0  0  0  0  0  0  0  0  0  0  0
   -3.2151    0.8250    0.0000 C   0  0  0  0  0  0  0  0  0  0  0  0
   -3.2151    1.6500    0.0000 C   0  0  0  0  0  0  0  0  0  0  0  0
   -2.5006    2.0625    0.0000 C   0  0  0  0  0  0  0  0  0  0  0  0
   -1.0717    2.0625    0.0000 S   0  0  0  0  0  0  0  0  0  0  0  0
   -1.4842    2.7770    0.0000 O   0  0  0  0  0  0  0  0  0  0  0  0
   -0.6592    1.3480    0.0000 O   0  0  0  0  0  0  0  0  0  0  0  0
   -0.3572    2.4750    0.0000 C   0  0  0  0  0  0  0  0  0  0  0  0
   -0.3572    3.3000    0.0000 C   0  0  0  0  0  0  0  0  0  0  0  0
    0.3572    2.0625    0.0000 C   0  0  0  0  0  0  0  0  0  0  0  0
   -1.0717    0.4125    0.0000 N   0  0  0  0  0  0  0  0  0  0  0  0
   -1.0717   -0.4125    0.0000 C   0  0  0  0  0  0  0  0  0  0  0  0
   -1.7862   -0.8250    0.0000 C   0  0  0  0  0  0  0  0  0  0  0  0
   -1.7862   -1.6500    0.0000 C   0  0  0  0  0  0  0  0  0  0  0  0
   -1.0717   -2.0625    0.0000 N   0  0  0  0  0  0  0  0  0  0  0  0
   -0.3572   -1.6500    0.0000 C   0  0  0  0  0  0  0  0  0  0  0  0
   -0.3572   -0.8250    0.0000 N   0  0  0  0  0  0  0  0  0  0  0  0
   -2.5006   -0.4125    0.0000 Cl  0  0  0  0  0  0  0  0  0  0  0  0
    0.3572   -2.0625    0.0000 N   0  0  0  0  0  0  0  0  0  0  0  0
    1.0717   -1.6500    0.0000 C   0  0  0  0  0  0  0  0  0  0  0  0
    1.0717   -0.8250    0.0000 C   0  0  0  0  0  0  0  0  0  0  0  0
    1.7862   -2.0625    0.0000 C   0  0  0  0  0  0  0  0  0  0  0  0
    2.5006   -1.6500    0.0000 C   0  0  0  0  0  0  0  0  0  0  0  0
    2.5006   -0.8250    0.0000 C   0  0  0  0  0  0  0  0  0  0  0  0
    1.7862   -0.4125    0.0000 C   0  0  0  0  0  0  0  0  0  0  0  0
    1.7862   -2.8875    0.0000 O   0  0  0  0  0  0  0  0  0  0  0  0
    2.5006   -3.3000    0.0000 C   0  0  0  0  0  0  0  0  0  0  0  0
    1.7862    0.4125    0.0000 C   0  0  0  0  0  0  0  0  0  0  0  0
    2.5006    0.8250    0.0000 C   0  0  0  0  0  0  0  0  0  0  0  0
    2.5006    1.6500    0.0000 N   0  0  0  0  0  0  0  0  0  0  0  0
    3.2151    2.0625    0.0000 C   0  0  0  0  0  0  0  0  0  0  0  0
  1  2  4  0  0  0  0
  2  3  4  0  0  0  0
  3  4  4  0  0  0  0
  4  5  4  0  0  0  0
  5  6  4  0  0  0  0
  6  1  4  0  0  0  0
  1  7  1  0  0  0  0
  7  8  2  0  0  0  0
  7  9  2  0  0  0  0
  7 10  1  0  0  0  0
 10 11  1  0  0  0  0
 10 12  1  0  0  0  0
  2 13  1  0  0  0  0
 13 14  1  0  0  0  0
 14 15  4  0  0  0  0
 15 16  4  0  0  0  0
 16 17  4  0  0  0  0
 17 18  4  0  0  0  0
 18 19  4  0  0  0  0
 19 14  4  0  0  0  0
 15 20  1  0  0  0  0
 18 21  1  0  0  0  0
 21 22  1  0  0  0  0
 22 23  4  0  0  0  0
 22 24  4  0  0  0  0
 24 25  4  0  0  0  0
 25 26  4  0  0  0  0
 26 27  4  0  0  0  0
 27 23  4  0  0  0  0
 24 28  1  0  0  0  0
 28 29  1  0  0  0  0
 27 30  1  0  0  0  0
 30 31  1  0  0  0  0
 31 32  1  0  0  0  0
 32 33  1  0  0  0  0
M  END
> <From>
www.bindingDB.org

> <BindingDB Reactant_set_id>
556918

> <Ligand InChI>
InChI=1S/C23H28ClN5O3S/c1-15(2)33(30,31)21-8-6-5-7-18(21)27-22-17(24)14-26-23(29-22)28-19-13-16(11-12-25-3)9-10-20(19)32-4/h5-10,13-15,25H,11-12H2,1-4H3,(H2,26,27,28,29)

> <Ligand InChI Key>
SBWJIBNYPHVCIY-UHFFFAOYSA-N

> <BindingDB MonomerID>
291940

> <BindingDB Ligand Name>
US10100019, Example 10

> <Target Name Assigned by Curator or DataSource>
ALK tyrosine kinase receptor

> <Target Source Organism According to Curator or DataSource>
Homo sapiens

> <Ki (nM)>


> <IC50 (nM)>
 4.00

> <Kd (nM)>


> <EC50 (nM)>


> <kon (M-1-s-1)>


> <koff (s-1)>


> <pH>


> <Temp C>
25.00

> <Curation/DataSource>
US Patent

> <Article DOI>
10.1016/j.bmcl.2006.04.076

> <PMID>


> <PubChem AID>


> <Patent Number>
US10100019

> <Authors>
Kim, P; Kim, HR; Cho, SY; Ha, JD; Jung, HJ; Yun, CS; Hwang, JY; Park, CH; Lee, CO; Ahn, S; Chae, CH

> <Institution>
Korea Research Institute of Chemical Technology

> <Link to Ligand in BindingDB>
http://www.bindingdb.org/bind/chemsearch/marvin/MolStructure.jsp?monomerid=291940

> <Link to Ligand-Target Pair in BindingDB>
http://www.bindingdb.org/jsp/dbsearch/PrimarySearch_ki.jsp?energyterm=kJ/mole&tag=pol&polymerid=5809&target=ALK+tyrosine+kinase+receptor&column=ki&startPg=0&Increment=50&submit=Search

> <Link to Ligand-Target Pair in BindingDB>
http://www.bindingdb.org/jsp/dbsearch/PrimarySearch_ki.jsp?energyterm=kJ/mole&tag=r21&monomerid=291940&enzyme=ALK+tyrosine+kinase+receptor&column=ki&startPg=0&Increment=50&submit=Search

> <Ligand HET ID in PDB>


> <PDB ID(s) for Ligand-Target Complex>


> <PubChem CID>
122629311

> <PubChem SID>
381612239

> <ChEBI ID of Ligand>


> <ChEMBL ID of Ligand>


> <DrugBank ID of Ligand>


> <IUPHAR_GRAC ID of Ligand>


> <KEGG ID of Ligand>


> <ZINC ID of Ligand>


> <Number of Protein Chains in Target (>1 implies a multichain complex)>
1

> <BindingDB Target Chain Sequence>
MGAIGLLWLLPLLLSTAAVGSGMGTGQRAGSPAAGPPLQPREPLSYSRLQRKSLAVDFVVPSLFRVYARDLLLPPSSSELKAGRPEARGSLALDCAPLLRLLGPAPGVSWTAGSPAPAEARTLSRVLKGGSVRKLRRAKQLVLELGEEAILEGCVGPPGEAAVGLLQFNLSELFSWWIRQGEGRLRIRLMPEKKASEVGREGRLSAAIRASQPRLLFQIFGTGHSSLESPTNMPSPSPDYFTWNLTWIMKDSFPFLSHRSRYGLECSFDFPCELEYSPPLHDLRNQSWSWRRIPSEEASQMDLLDGPGAERSKEMPRGSFLLLNTSADSKHTILSPWMRSSSEHCTLAVSVHRHLQPSGRYIAQLLPHNEAAREILLMPTPGKHGWTVLQGRIGRPDNPFRVALEYISSGNRSLSAVDFFALKNCSEGTSPGSKMALQSSFTCWNGTVLQLGQACDFHQDCAQGEDESQMCRKLPVGFYCNFEDGFCGWTQGTLSPHTPQWQVRTLKDARFQDHQDHALLLSTTDVPASESATVTSATFPAPIKSSPCELRMSWLIRGVLRGNVSLVLVENKTGKEQGRMVWHVAAYEGLSLWQWMVLPLLDVSDRFWLQMVAWWGQGSRAIVAFDNISISLDCYLTISGEDKILQNTAPKSRNLFERNPNKELKPGENSPRQTPIFDPTVHWLFTTCGASGPHGPTQAQCNNAYQNSNLSVEVGSEGPLKGIQIWKVPATDTYSISGYGAAGGKGGKNTMMRSHGVSVLGIFNLEKDDMLYILVGQQGEDACPSTNQLIQKVCIGENNVIEEEIRVNRSVHEWAGGGGGGGGATYVFKMKDGVPVPLIIAAGGGGRAYGAKTDTFHPERLENNSSVLGLNGNSGAAGGGGGWNDNTSLLWAGKSLQEGATGGHSCPQAMKKWGWETRGGFGGGGGGCSSGGGGGGYIGGNAASNNDPEMDGEDGVSFISPLGILYTPALKVMEGHGEVNIKHYLNCSHCEVDECHMDPESHKVICFCDHGTVLAEDGVSCIVSPTPEPHLPLSLILSVVTSALVAALVLAFSGIMIVYRRKHQELQAMQMELQSPEYKLSKLRTSTIMTDYNPNYCFAGKTSSISDLKEVPRKNITLIRGLGHGAFGEVYEGQVSGMPNDPSPLQVAVKTLPEVCSEQDELDFLMEALIISKFNHQNIVRCIGVSLQSLPRFILLELMAGGDLKSFLRETRPRPSQPSSLAMLDLLHVARDIACGCQYLEENHFIHRDIAARNCLLTCPGPGRVAKIGDFGMARDIYRASYYRKGGCAMLPVKWMPPEAFMEGIFTSKTDTWSFGVLLWEIFSLGYMPYPSKSNQEVLEFVTSGGRMDPPKNCPGPVYRIMTQCWQHQPEDRPNFAIILERIEYCTQDPDVINTALPIEYGPLVEEEEKVPVRPKDPEGVPPLLVSQQAKREEERSPAAPPPLPTTSSGKAAKKPTAAEISVRVPRGPAVEGGHVNMAFSQSNPPSELHKVHGSRNKPTSLWNPTYGSWFTEKPTKKNNPIAKKEPHDRGNLGLEGSCTVPPNVATGRLPGASLLLEPSSLTANMKEVPLFRLRHFPCGNVNYGYQQQGLPLEAATAPGAGHYEDTILKSKNSMNQPGP

> <PDB ID(s) of Target Chain>
2XB7,2XBA,3AOX,5FTO,5FTQ,6E0R,6EBW,6EDL,6MX8

> <UniProt (SwissProt) Recommended Name of Target Chain>
ALK tyrosine kinase receptor

> <UniProt (SwissProt) Entry Name of Target Chain>
ALK_HUMAN

> <UniProt (SwissProt) Primary ID of Target Chain>
Q9UM73

> <UniProt (SwissProt) Secondary ID(s) of Target Chain>
Q4ZFX9,Q53QQ6,Q53RZ4,Q59FI3,Q9Y4K6

> <UniProt (SwissProt) Alternative ID(s) of Target Chain>


> <UniProt (TrEMBL) Submitted Name of Target Chain>


> <UniProt (TrEMBL) Entry Name of Target Chain>


> <UniProt (TrEMBL) Primary ID of Target Chain>


> <UniProt (TrEMBL) Secondary ID(s) of Target Chain>


> <UniProt (TrEMBL) Alternative ID(s) of Target Chain>


$$$$
00145001.cdx
  Mrv0541 02211919242D          

 39 42  0  0  0  0            999 V2000
   -3.2151    1.6500    0.0000 C   0  0  0  0  0  0  0  0  0  0  0  0
   -3.2151    0.8250    0.0000 C   0  0  0  0  0  0  0  0  0  0  0  0
   -3.9296    0.4125    0.0000 C   0  0  0  0  0  0  0  0  0  0  0  0
   -4.6441    0.8250    0.0000 C   0  0  0  0  0  0  0  0  0  0  0  0
   -4.6441    1.6500    0.0000 C   0  0  0  0  0  0  0  0  0  0  0  0
   -3.9296    2.0625    0.0000 C   0  0  0  0  0  0  0  0  0  0  0  0
   -2.5006    2.0625    0.0000 S   0  0  0  0  0  0  0  0  0  0  0  0
   -2.9131    2.7770    0.0000 O   0  0  0  0  0  0  0  0  0  0  0  0
   -2.0881    1.3480    0.0000 O   0  0  0  0  0  0  0  0  0  0  0  0
   -1.7862    2.4750    0.0000 C   0  0  0  0  0  0  0  0  0  0  0  0
   -1.7862    3.3000    0.0000 C   0  0  0  0  0  0  0  0  0  0  0  0
   -1.0717    2.0625    0.0000 C   0  0  0  0  0  0  0  0  0  0  0  0
   -2.5006    0.4125    0.0000 N   0  0  0  0  0  0  0  0  0  0  0  0
   -2.5006   -0.4125    0.0000 C   0  0  0  0  0  0  0  0  0  0  0  0
   -3.2151   -0.8250    0.0000 C   0  0  0  0  0  0  0  0  0  0  0  0
   -3.2151   -1.6500    0.0000 C   0  0  0  0  0  0  0  0  0  0  0  0
   -2.5006   -2.0625    0.0000 N   0  0  0  0  0  0  0  0  0  0  0  0
   -1.7862   -1.6500    0.0000 C   0  0  0  0  0  0  0  0  0  0  0  0
   -1.7862   -0.8250    0.0000 N   0  0  0  0  0  0  0  0  0  0  0  0
   -3.9296   -0.4125    0.0000 Cl  0  0  0  0  0  0  0  0  0  0  0  0
   -1.0717   -2.0625    0.0000 N   0  0  0  0  0  0  0  0  0  0  0  0
   -0.3572   -1.6500    0.0000 C   0  0  0  0  0  0  0  0  0  0  0  0
   -0.3572   -0.8250    0.0000 C   0  0  0  0  0  0  0  0  0  0  0  0
    0.3572   -2.0625    0.0000 C   0  0  0  0  0  0  0  0  0  0  0  0
    1.0717   -1.6500    0.0000 C   0  0  0  0  0  0  0  0  0  0  0  0
    1.0717   -0.8250    0.0000 C   0  0  0  0  0  0  0  0  0  0  0  0
    0.3572   -0.4125    0.0000 C   0  0  0  0  0  0  0  0  0  0  0  0
    0.3572   -2.8875    0.0000 O   0  0  0  0  0  0  0  0  0  0  0  0
    1.0717   -3.3000    0.0000 C   0  0  0  0  0  0  0  0  0  0  0  0
    0.3572    0.4125    0.0000 C   0  0  0  0  0  0  0  0  0  0  0  0
    1.0717    0.8250    0.0000 C   0  0  0  0  0  0  0  0  0  0  0  0
    1.7862    0.4125    0.0000 N   0  0  0  0  0  0  0  0  0  0  0  0
    2.5006    0.8250    0.0000 C   0  0  0  0  0  0  0  0  0  0  0  0
    3.2151    0.4125    0.0000 C   0  0  0  0  0  0  0  0  0  0  0  0
    3.2151   -0.4125    0.0000 C   0  0  0  0  0  0  0  0  0  0  0  0
    3.9296   -0.8250    0.0000 C   0  0  0  0  0  0  0  0  0  0  0  0
    4.6441   -0.4125    0.0000 C   0  0  0  0  0  0  0  0  0  0  0  0
    4.6441    0.4125    0.0000 C   0  0  0  0  0  0  0  0  0  0  0  0
    3.9296    0.8250    0.0000 C   0  0  0  0  0  0  0  0  0  0  0  0
  1  2  4  0  0  0  0
  2  3  4  0  0  0  0
  3  4  4  0  0  0  0
  4  5  4  0  0  0  0
  5  6  4  0  0  0  0
  6  1  4  0  0  0  0
  1  7  1  0  0  0  0
  7  8  2  0  0  0  0
  7  9  2  0  0  0  0
  7 10  1  0  0  0  0
 10 11  1  0  0  0  0
 10 12  1  0  0  0  0
  2 13  1  0  0  0  0
 13 14  1  0  0  0  0
 14 15  4  0  0  0  0
 15 16  4  0  0  0  0
 16 17  4  0  0  0  0
 17 18  4  0  0  0  0
 18 19  4  0  0  0  0
 19 14  4  0  0  0  0
 15 20  1  0  0  0  0
 18 21  1  0  0  0  0
 21 22  1  0  0  0  0
 22 23  4  0  0  0  0
 22 24  4  0  0  0  0
 24 25  4  0  0  0  0
 25 26  4  0  0  0  0
 26 27  4  0  0  0  0
 27 23  4  0  0  0  0
 24 28  1  0  0  0  0
 28 29  1  0  0  0  0
 27 30  1  0  0  0  0
 30 31  1  0  0  0  0
 31 32  1  0  0  0  0
 32 33  1  0  0  0  0
 33 34  1  0  0  0  0
 34 35  4  0  0  0  0
 35 36  4  0  0  0  0
 36 37  4  0  0  0  0
 37 38  4  0  0  0  0
 38 39  4  0  0  0  0
 39 34  4  0  0  0  0
M  END
> <From>
www.bindingDB.org

> <BindingDB Reactant_set_id>
556919

> <Ligand InChI>
InChI=1S/C29H32ClN5O3S/c1-20(2)39(36,37)27-12-8-7-11-24(27)33-28-23(30)19-32-29(35-28)34-25-17-21(13-14-26(25)38-3)15-16-31-18-22-9-5-4-6-10-22/h4-14,17,19-20,31H,15-16,18H2,1-3H3,(H2,32,33,34,35)

> <Ligand InChI Key>
POQOPHUTAQLSQX-UHFFFAOYSA-N

> <BindingDB MonomerID>
291941

> <BindingDB Ligand Name>
US10100019, Example 11

> <Target Name Assigned by Curator or DataSource>
ALK tyrosine kinase receptor

> <Target Source Organism According to Curator or DataSource>
Homo sapiens

> <Ki (nM)>


> <IC50 (nM)>
 4.00

> <Kd (nM)>


> <EC50 (nM)>


> <kon (M-1-s-1)>


> <koff (s-1)>


> <pH>


> <Temp C>
25.00

> <Curation/DataSource>
US Patent

> <Article DOI>
10.1016/j.bmcl.2006.04.076

> <PMID>


> <PubChem AID>


> <Patent Number>
US10100019

> <Authors>
Kim, P; Kim, HR; Cho, SY; Ha, JD; Jung, HJ; Yun, CS; Hwang, JY; Park, CH; Lee, CO; Ahn, S; Chae, CH

> <Institution>
Korea Research Institute of Chemical Technology

> <Link to Ligand in BindingDB>
http://www.bindingdb.org/bind/chemsearch/marvin/MolStructure.jsp?monomerid=291941

> <Link to Ligand-Target Pair in BindingDB>
http://www.bindingdb.org/jsp/dbsearch/PrimarySearch_ki.jsp?energyterm=kJ/mole&tag=pol&polymerid=5809&target=ALK+tyrosine+kinase+receptor&column=ki&startPg=0&Increment=50&submit=Search

> <Link to Ligand-Target Pair in BindingDB>
http://www.bindingdb.org/jsp/dbsearch/PrimarySearch_ki.jsp?energyterm=kJ/mole&tag=r21&monomerid=291941&enzyme=ALK+tyrosine+kinase+receptor&column=ki&startPg=0&Increment=50&submit=Search

> <Ligand HET ID in PDB>


> <PDB ID(s) for Ligand-Target Complex>


> <PubChem CID>
122629216

> <PubChem SID>
381612240

> <ChEBI ID of Ligand>


> <ChEMBL ID of Ligand>


> <DrugBank ID of Ligand>


> <IUPHAR_GRAC ID of Ligand>


> <KEGG ID of Ligand>


> <ZINC ID of Ligand>


> <Number of Protein Chains in Target (>1 implies a multichain complex)>
1

> <BindingDB Target Chain Sequence>
MGAIGLLWLLPLLLSTAAVGSGMGTGQRAGSPAAGPPLQPREPLSYSRLQRKSLAVDFVVPSLFRVYARDLLLPPSSSELKAGRPEARGSLALDCAPLLRLLGPAPGVSWTAGSPAPAEARTLSRVLKGGSVRKLRRAKQLVLELGEEAILEGCVGPPGEAAVGLLQFNLSELFSWWIRQGEGRLRIRLMPEKKASEVGREGRLSAAIRASQPRLLFQIFGTGHSSLESPTNMPSPSPDYFTWNLTWIMKDSFPFLSHRSRYGLECSFDFPCELEYSPPLHDLRNQSWSWRRIPSEEASQMDLLDGPGAERSKEMPRGSFLLLNTSADSKHTILSPWMRSSSEHCTLAVSVHRHLQPSGRYIAQLLPHNEAAREILLMPTPGKHGWTVLQGRIGRPDNPFRVALEYISSGNRSLSAVDFFALKNCSEGTSPGSKMALQSSFTCWNGTVLQLGQACDFHQDCAQGEDESQMCRKLPVGFYCNFEDGFCGWTQGTLSPHTPQWQVRTLKDARFQDHQDHALLLSTTDVPASESATVTSATFPAPIKSSPCELRMSWLIRGVLRGNVSLVLVENKTGKEQGRMVWHVAAYEGLSLWQWMVLPLLDVSDRFWLQMVAWWGQGSRAIVAFDNISISLDCYLTISGEDKILQNTAPKSRNLFERNPNKELKPGENSPRQTPIFDPTVHWLFTTCGASGPHGPTQAQCNNAYQNSNLSVEVGSEGPLKGIQIWKVPATDTYSISGYGAAGGKGGKNTMMRSHGVSVLGIFNLEKDDMLYILVGQQGEDACPSTNQLIQKVCIGENNVIEEEIRVNRSVHEWAGGGGGGGGATYVFKMKDGVPVPLIIAAGGGGRAYGAKTDTFHPERLENNSSVLGLNGNSGAAGGGGGWNDNTSLLWAGKSLQEGATGGHSCPQAMKKWGWETRGGFGGGGGGCSSGGGGGGYIGGNAASNNDPEMDGEDGVSFISPLGILYTPALKVMEGHGEVNIKHYLNCSHCEVDECHMDPESHKVICFCDHGTVLAEDGVSCIVSPTPEPHLPLSLILSVVTSALVAALVLAFSGIMIVYRRKHQELQAMQMELQSPEYKLSKLRTSTIMTDYNPNYCFAGKTSSISDLKEVPRKNITLIRGLGHGAFGEVYEGQVSGMPNDPSPLQVAVKTLPEVCSEQDELDFLMEALIISKFNHQNIVRCIGVSLQSLPRFILLELMAGGDLKSFLRETRPRPSQPSSLAMLDLLHVARDIACGCQYLEENHFIHRDIAARNCLLTCPGPGRVAKIGDFGMARDIYRASYYRKGGCAMLPVKWMPPEAFMEGIFTSKTDTWSFGVLLWEIFSLGYMPYPSKSNQEVLEFVTSGGRMDPPKNCPGPVYRIMTQCWQHQPEDRPNFAIILERIEYCTQDPDVINTALPIEYGPLVEEEEKVPVRPKDPEGVPPLLVSQQAKREEERSPAAPPPLPTTSSGKAAKKPTAAEISVRVPRGPAVEGGHVNMAFSQSNPPSELHKVHGSRNKPTSLWNPTYGSWFTEKPTKKNNPIAKKEPHDRGNLGLEGSCTVPPNVATGRLPGASLLLEPSSLTANMKEVPLFRLRHFPCGNVNYGYQQQGLPLEAATAPGAGHYEDTILKSKNSMNQPGP

> <PDB ID(s) of Target Chain>
2XB7,2XBA,3AOX,5FTO,5FTQ,6E0R,6EBW,6EDL,6MX8

> <UniProt (SwissProt) Recommended Name of Target Chain>
ALK tyrosine kinase receptor

> <UniProt (SwissProt) Entry Name of Target Chain>
ALK_HUMAN

> <UniProt (SwissProt) Primary ID of Target Chain>
Q9UM73

> <UniProt (SwissProt) Secondary ID(s) of Target Chain>
Q4ZFX9,Q53QQ6,Q53RZ4,Q59FI3,Q9Y4K6

> <UniProt (SwissProt) Alternative ID(s) of Target Chain>


> <UniProt (TrEMBL) Submitted Name of Target Chain>


> <UniProt (TrEMBL) Entry Name of Target Chain>


> <UniProt (TrEMBL) Primary ID of Target Chain>


> <UniProt (TrEMBL) Secondary ID(s) of Target Chain>


> <UniProt (TrEMBL) Alternative ID(s) of Target Chain>


$$$$
00150001.cdx
  Mrv0541 02211919242D          

 41 44  0  0  0  0            999 V2000
   -3.5724    1.6500    0.0000 C   0  0  0  0  0  0  0  0  0  0  0  0
   -3.5724    0.8250    0.0000 C   0  0  0  0  0  0  0  0  0  0  0  0
   -4.2869    0.4125    0.0000 C   0  0  0  0  0  0  0  0  0  0  0  0
   -5.0013    0.8250    0.0000 C   0  0  0  0  0  0  0  0  0  0  0  0
   -5.0013    1.6500    0.0000 C   0  0  0  0  0  0  0  0  0  0  0  0
   -4.2869    2.0625    0.0000 C   0  0  0  0  0  0  0  0  0  0  0  0
   -2.8578    2.0625    0.0000 S   0  0  0  0  0  0  0  0  0  0  0  0
   -3.2704    2.7769    0.0000 O   0  0  0  0  0  0  0  0  0  0  0  0
   -2.4454    1.3480    0.0000 O   0  0  0  0  0  0  0  0  0  0  0  0
   -2.1434    2.4750    0.0000 C   0  0  0  0  0  0  0  0  0  0  0  0
   -2.1434    3.3000    0.0000 C   0  0  0  0  0  0  0  0  0  0  0  0
   -1.4289    2.0625    0.0000 C   0  0  0  0  0  0  0  0  0  0  0  0
   -2.8578    0.4125    0.0000 N   0  0  0  0  0  0  0  0  0  0  0  0
   -2.8578   -0.4125    0.0000 C   0  0  0  0  0  0  0  0  0  0  0  0
   -3.5724   -0.8250    0.0000 C   0  0  0  0  0  0  0  0  0  0  0  0
   -3.5724   -1.6500    0.0000 C   0  0  0  0  0  0  0  0  0  0  0  0
   -2.8578   -2.0625    0.0000 N   0  0  0  0  0  0  0  0  0  0  0  0
   -2.1434   -1.6500    0.0000 C   0  0  0  0  0  0  0  0  0  0  0  0
   -2.1434   -0.8250    0.0000 N   0  0  0  0  0  0  0  0  0  0  0  0
   -4.2869   -0.4125    0.0000 Cl  0  0  0  0  0  0  0  0  0  0  0  0
   -1.4289   -2.0625    0.0000 N   0  0  0  0  0  0  0  0  0  0  0  0
   -0.7145   -1.6500    0.0000 C   0  0  0  0  0  0  0  0  0  0  0  0
   -0.7145   -0.8250    0.0000 C   0  0  0  0  0  0  0  0  0  0  0  0
    0.0000   -2.0625    0.0000 C   0  0  0  0  0  0  0  0  0  0  0  0
    0.7145   -1.6500    0.0000 C   0  0  0  0  0  0  0  0  0  0  0  0
    0.7145   -0.8250    0.0000 C   0  0  0  0  0  0  0  0  0  0  0  0
    0.0000   -0.4125    0.0000 C   0  0  0  0  0  0  0  0  0  0  0  0
    0.0000   -2.8876    0.0000 O   0  0  0  0  0  0  0  0  0  0  0  0
    0.7145   -3.3000    0.0000 C   0  0  0  0  0  0  0  0  0  0  0  0
    0.0000    0.4125    0.0000 C   0  0  0  0  0  0  0  0  0  0  0  0
    0.7145    0.8250    0.0000 C   0  0  0  0  0  0  0  0  0  0  0  0
    1.4289    0.4125    0.0000 N   0  0  0  0  0  0  0  0  0  0  0  0
    2.1434    0.8250    0.0000 C   0  0  0  0  0  0  0  0  0  0  0  0
    2.8578    0.4125    0.0000 C   0  0  0  0  0  0  0  0  0  0  0  0
    4.2869    0.4125    0.0000 C   0  0  0  0  0  0  0  0  0  0  0  0
    3.5724    0.8250    0.0000 C   0  0  0  0  0  0  0  0  0  0  0  0
    2.1434    1.6500    0.0000 O   0  0  0  0  0  0  0  0  0  0  0  0
    5.0013    0.8250    0.0000 C   0  0  0  0  0  0  0  0  0  0  0  0
    5.0013    1.6500    0.0000 C   0  0  0  0  0  0  0  0  0  0  0  0
    4.2869    2.0625    0.0000 C   0  0  0  0  0  0  0  0  0  0  0  0
    3.5724    1.6500    0.0000 C   0  0  0  0  0  0  0  0  0  0  0  0
  1  2  4  0  0  0  0
  2  3  4  0  0  0  0
  3  4  4  0  0  0  0
  4  5  4  0  0  0  0
  5  6  4  0  0  0  0
  6  1  4  0  0  0  0
  1  7  1  0  0  0  0
  7  8  2  0  0  0  0
  7  9  2  0  0  0  0
  7 10  1  0  0  0  0
 10 11  1  0  0  0  0
 10 12  1  0  0  0  0
  2 13  1  0  0  0  0
 13 14  1  0  0  0  0
 14 15  4  0  0  0  0
 15 16  4  0  0  0  0
 16 17  4  0  0  0  0
 17 18  4  0  0  0  0
 18 19  4  0  0  0  0
 19 14  4  0  0  0  0
 15 20  1  0  0  0  0
 18 21  1  0  0  0  0
 21 22  1  0  0  0  0
 22 23  4  0  0  0  0
 22 24  4  0  0  0  0
 24 25  4  0  0  0  0
 25 26  4  0  0  0  0
 26 27  4  0  0  0  0
 27 23  4  0  0  0  0
 24 28  1  0  0  0  0
 28 29  1  0  0  0  0
 27 30  1  0  0  0  0
 30 31  1  0  0  0  0
 31 32  1  0  0  0  0
 32 33  1  0  0  0  0
 33 34  1  0  0  0  0
 35 36  4  0  0  0  0
 36 34  1  0  0  0  0
 33 37  2  0  0  0  0
 35 38  4  0  0  0  0
 38 39  4  0  0  0  0
 39 40  4  0  0  0  0
 40 41  4  0  0  0  0
 41 36  4  0  0  0  0
M  END
> <From>
www.bindingDB.org

> <BindingDB Reactant_set_id>
556920

> <Ligand InChI>
InChI=1S/C30H32ClN5O4S/c1-20(2)41(38,39)27-12-8-7-11-24(27)34-29-23(31)19-33-30(36-29)35-25-17-22(13-14-26(25)40-3)15-16-32-28(37)18-21-9-5-4-6-10-21/h4-14,17,19-20H,15-16,18H2,1-3H3,(H,32,37)(H2,33,34,35,36)

> <Ligand InChI Key>
QLNWZYTUBBNBEL-UHFFFAOYSA-N

> <BindingDB MonomerID>
291942

> <BindingDB Ligand Name>
US10100019, Example 12

> <Target Name Assigned by Curator or DataSource>
ALK tyrosine kinase receptor

> <Target Source Organism According to Curator or DataSource>
Homo sapiens

> <Ki (nM)>


> <IC50 (nM)>
 20.0

> <Kd (nM)>


> <EC50 (nM)>


> <kon (M-1-s-1)>


> <koff (s-1)>


> <pH>


> <Temp C>
25.00

> <Curation/DataSource>
US Patent

> <Article DOI>
10.1016/j.bmcl.2006.04.076

> <PMID>


> <PubChem AID>


> <Patent Number>
US10100019

> <Authors>
Kim, P; Kim, HR; Cho, SY; Ha, JD; Jung, HJ; Yun, CS; Hwang, JY; Park, CH; Lee, CO; Ahn, S; Chae, CH

> <Institution>
Korea Research Institute of Chemical Technology

> <Link to Ligand in BindingDB>
http://www.bindingdb.org/bind/chemsearch/marvin/MolStructure.jsp?monomerid=291942

> <Link to Ligand-Target Pair in BindingDB>
http://www.bindingdb.org/jsp/dbsearch/PrimarySearch_ki.jsp?energyterm=kJ/mole&tag=pol&polymerid=5809&target=ALK+tyrosine+kinase+receptor&column=ki&startPg=0&Increment=50&submit=Search

> <Link to Ligand-Target Pair in BindingDB>
http://www.bindingdb.org/jsp/dbsearch/PrimarySearch_ki.jsp?energyterm=kJ/mole&tag=r21&monomerid=291942&enzyme=ALK+tyrosine+kinase+receptor&column=ki&startPg=0&Increment=50&submit=Search

> <Ligand HET ID in PDB>


> <PDB ID(s) for Ligand-Target Complex>


> <PubChem CID>
122629351

> <PubChem SID>
381612241

> <ChEBI ID of Ligand>


> <ChEMBL ID of Ligand>


> <DrugBank ID of Ligand>


> <IUPHAR_GRAC ID of Ligand>


> <KEGG ID of Ligand>


> <ZINC ID of Ligand>


> <Number of Protein Chains in Target (>1 implies a multichain complex)>
1

> <BindingDB Target Chain Sequence>
MGAIGLLWLLPLLLSTAAVGSGMGTGQRAGSPAAGPPLQPREPLSYSRLQRKSLAVDFVVPSLFRVYARDLLLPPSSSELKAGRPEARGSLALDCAPLLRLLGPAPGVSWTAGSPAPAEARTLSRVLKGGSVRKLRRAKQLVLELGEEAILEGCVGPPGEAAVGLLQFNLSELFSWWIRQGEGRLRIRLMPEKKASEVGREGRLSAAIRASQPRLLFQIFGTGHSSLESPTNMPSPSPDYFTWNLTWIMKDSFPFLSHRSRYGLECSFDFPCELEYSPPLHDLRNQSWSWRRIPSEEASQMDLLDGPGAERSKEMPRGSFLLLNTSADSKHTILSPWMRSSSEHCTLAVSVHRHLQPSGRYIAQLLPHNEAAREILLMPTPGKHGWTVLQGRIGRPDNPFRVALEYISSGNRSLSAVDFFALKNCSEGTSPGSKMALQSSFTCWNGTVLQLGQACDFHQDCAQGEDESQMCRKLPVGFYCNFEDGFCGWTQGTLSPHTPQWQVRTLKDARFQDHQDHALLLSTTDVPASESATVTSATFPAPIKSSPCELRMSWLIRGVLRGNVSLVLVENKTGKEQGRMVWHVAAYEGLSLWQWMVLPLLDVSDRFWLQMVAWWGQGSRAIVAFDNISISLDCYLTISGEDKILQNTAPKSRNLFERNPNKELKPGENSPRQTPIFDPTVHWLFTTCGASGPHGPTQAQCNNAYQNSNLSVEVGSEGPLKGIQIWKVPATDTYSISGYGAAGGKGGKNTMMRSHGVSVLGIFNLEKDDMLYILVGQQGEDACPSTNQLIQKVCIGENNVIEEEIRVNRSVHEWAGGGGGGGGATYVFKMKDGVPVPLIIAAGGGGRAYGAKTDTFHPERLENNSSVLGLNGNSGAAGGGGGWNDNTSLLWAGKSLQEGATGGHSCPQAMKKWGWETRGGFGGGGGGCSSGGGGGGYIGGNAASNNDPEMDGEDGVSFISPLGILYTPALKVMEGHGEVNIKHYLNCSHCEVDECHMDPESHKVICFCDHGTVLAEDGVSCIVSPTPEPHLPLSLILSVVTSALVAALVLAFSGIMIVYRRKHQELQAMQMELQSPEYKLSKLRTSTIMTDYNPNYCFAGKTSSISDLKEVPRKNITLIRGLGHGAFGEVYEGQVSGMPNDPSPLQVAVKTLPEVCSEQDELDFLMEALIISKFNHQNIVRCIGVSLQSLPRFILLELMAGGDLKSFLRETRPRPSQPSSLAMLDLLHVARDIACGCQYLEENHFIHRDIAARNCLLTCPGPGRVAKIGDFGMARDIYRASYYRKGGCAMLPVKWMPPEAFMEGIFTSKTDTWSFGVLLWEIFSLGYMPYPSKSNQEVLEFVTSGGRMDPPKNCPGPVYRIMTQCWQHQPEDRPNFAIILERIEYCTQDPDVINTALPIEYGPLVEEEEKVPVRPKDPEGVPPLLVSQQAKREEERSPAAPPPLPTTSSGKAAKKPTAAEISVRVPRGPAVEGGHVNMAFSQSNPPSELHKVHGSRNKPTSLWNPTYGSWFTEKPTKKNNPIAKKEPHDRGNLGLEGSCTVPPNVATGRLPGASLLLEPSSLTANMKEVPLFRLRHFPCGNVNYGYQQQGLPLEAATAPGAGHYEDTILKSKNSMNQPGP

> <PDB ID(s) of Target Chain>
2XB7,2XBA,3AOX,5FTO,5FTQ,6E0R,6EBW,6EDL,6MX8

> <UniProt (SwissProt) Recommended Name of Target Chain>
ALK tyrosine kinase receptor

> <UniProt (SwissProt) Entry Name of Target Chain>
ALK_HUMAN

> <UniProt (SwissProt) Primary ID of Target Chain>
Q9UM73

> <UniProt (SwissProt) Secondary ID(s) of Target Chain>
Q4ZFX9,Q53QQ6,Q53RZ4,Q59FI3,Q9Y4K6

> <UniProt (SwissProt) Alternative ID(s) of Target Chain>


> <UniProt (TrEMBL) Submitted Name of Target Chain>


> <UniProt (TrEMBL) Entry Name of Target Chain>


> <UniProt (TrEMBL) Primary ID of Target Chain>


> <UniProt (TrEMBL) Secondary ID(s) of Target Chain>


> <UniProt (TrEMBL) Alternative ID(s) of Target Chain>


$$$$
00146001.cdx
  Mrv0541 02211919242D          

 34 36  0  0  0  0            999 V2000
   -2.1434    1.6500    0.0000 C   0  0  0  0  0  0  0  0  0  0  0  0
   -2.1434    0.8250    0.0000 C   0  0  0  0  0  0  0  0  0  0  0  0
   -2.8579    0.4125    0.0000 C   0  0  0  0  0  0  0  0  0  0  0  0
   -3.5724    0.8250    0.0000 C   0  0  0  0  0  0  0  0  0  0  0  0
   -3.5724    1.6500    0.0000 C   0  0  0  0  0  0  0  0  0  0  0  0
   -2.8579    2.0625    0.0000 C   0  0  0  0  0  0  0  0  0  0  0  0
   -1.4289    2.0625    0.0000 S   0  0  0  0  0  0  0  0  0  0  0  0
   -1.8414    2.7770    0.0000 O   0  0  0  0  0  0  0  0  0  0  0  0
   -1.0164    1.3480    0.0000 O   0  0  0  0  0  0  0  0  0  0  0  0
   -0.7145    2.4750    0.0000 C   0  0  0  0  0  0  0  0  0  0  0  0
   -0.7145    3.3000    0.0000 C   0  0  0  0  0  0  0  0  0  0  0  0
    0.0000    2.0625    0.0000 C   0  0  0  0  0  0  0  0  0  0  0  0
   -1.4289    0.4125    0.0000 N   0  0  0  0  0  0  0  0  0  0  0  0
   -1.4289   -0.4125    0.0000 C   0  0  0  0  0  0  0  0  0  0  0  0
   -2.1434   -0.8250    0.0000 C   0  0  0  0  0  0  0  0  0  0  0  0
   -2.1434   -1.6500    0.0000 C   0  0  0  0  0  0  0  0  0  0  0  0
   -1.4289   -2.0625    0.0000 N   0  0  0  0  0  0  0  0  0  0  0  0
   -0.7145   -1.6500    0.0000 C   0  0  0  0  0  0  0  0  0  0  0  0
   -0.7145   -0.8250    0.0000 N   0  0  0  0  0  0  0  0  0  0  0  0
   -2.8579   -0.4125    0.0000 Cl  0  0  0  0  0  0  0  0  0  0  0  0
    0.0000   -2.0625    0.0000 N   0  0  0  0  0  0  0  0  0  0  0  0
    0.7145   -1.6500    0.0000 C   0  0  0  0  0  0  0  0  0  0  0  0
    0.7145   -0.8250    0.0000 C   0  0  0  0  0  0  0  0  0  0  0  0
    1.4289   -2.0625    0.0000 C   0  0  0  0  0  0  0  0  0  0  0  0
    2.1434   -1.6500    0.0000 C   0  0  0  0  0  0  0  0  0  0  0  0
    2.1434   -0.8250    0.0000 C   0  0  0  0  0  0  0  0  0  0  0  0
    1.4289   -0.4125    0.0000 C   0  0  0  0  0  0  0  0  0  0  0  0
    1.4289   -2.8875    0.0000 O   0  0  0  0  0  0  0  0  0  0  0  0
    2.1434   -3.3000    0.0000 C   0  0  0  0  0  0  0  0  0  0  0  0
    1.4289    0.4125    0.0000 C   0  0  0  0  0  0  0  0  0  0  0  0
    2.1434    0.8250    0.0000 C   0  0  0  0  0  0  0  0  0  0  0  0
    2.1434    1.6500    0.0000 N   0  0  0  0  0  0  0  0  0  0  0  0
    2.8579    2.0625    0.0000 C   0  0  0  0  0  0  0  0  0  0  0  0
    3.5724    1.6500    0.0000 C   0  0  0  0  0  0  0  0  0  0  0  0
  1  2  4  0  0  0  0
  2  3  4  0  0  0  0
  3  4  4  0  0  0  0
  4  5  4  0  0  0  0
  5  6  4  0  0  0  0
  6  1  4  0  0  0  0
  1  7  1  0  0  0  0
  7  8  2  0  0  0  0
  7  9  2  0  0  0  0
  7 10  1  0  0  0  0
 10 11  1  0  0  0  0
 10 12  1  0  0  0  0
  2 13  1  0  0  0  0
 13 14  1  0  0  0  0
 14 15  4  0  0  0  0
 15 16  4  0  0  0  0
 16 17  4  0  0  0  0
 17 18  4  0  0  0  0
 18 19  4  0  0  0  0
 19 14  4  0  0  0  0
 15 20  1  0  0  0  0
 18 21  1  0  0  0  0
 21 22  1  0  0  0  0
 22 23  4  0  0  0  0
 22 24  4  0  0  0  0
 24 25  4  0  0  0  0
 25 26  4  0  0  0  0
 26 27  4  0  0  0  0
 27 23  4  0  0  0  0
 24 28  1  0  0  0  0
 28 29  1  0  0  0  0
 27 30  1  0  0  0  0
 30 31  1  0  0  0  0
 31 32  1  0  0  0  0
 32 33  1  0  0  0  0
 33 34  1  0  0  0  0
M  END
> <From>
www.bindingDB.org

> <BindingDB Reactant_set_id>
556921

> <Ligand InChI>
InChI=1S/C24H30ClN5O3S/c1-5-26-13-12-17-10-11-21(33-4)20(14-17)29-24-27-15-18(25)23(30-24)28-19-8-6-7-9-22(19)34(31,32)16(2)3/h6-11,14-16,26H,5,12-13H2,1-4H3,(H2,27,28,29,30)

> <Ligand InChI Key>
LTIMJKHVDDEVSP-UHFFFAOYSA-N

> <BindingDB MonomerID>
291943

> <BindingDB Ligand Name>
US10100019, Example 13

> <Target Name Assigned by Curator or DataSource>
ALK tyrosine kinase receptor

> <Target Source Organism According to Curator or DataSource>
Homo sapiens

> <Ki (nM)>


> <IC50 (nM)>
 0.840

> <Kd (nM)>


> <EC50 (nM)>


> <kon (M-1-s-1)>


> <koff (s-1)>


> <pH>


> <Temp C>
25.00

> <Curation/DataSource>
US Patent

> <Article DOI>
10.1016/j.bmcl.2006.04.076

> <PMID>


> <PubChem AID>


> <Patent Number>
US10100019

> <Authors>
Kim, P; Kim, HR; Cho, SY; Ha, JD; Jung, HJ; Yun, CS; Hwang, JY; Park, CH; Lee, CO; Ahn, S; Chae, CH

> <Institution>
Korea Research Institute of Chemical Technology

> <Link to Ligand in BindingDB>
http://www.bindingdb.org/bind/chemsearch/marvin/MolStructure.jsp?monomerid=291943

> <Link to Ligand-Target Pair in BindingDB>
http://www.bindingdb.org/jsp/dbsearch/PrimarySearch_ki.jsp?energyterm=kJ/mole&tag=pol&polymerid=5809&target=ALK+tyrosine+kinase+receptor&column=ki&startPg=0&Increment=50&submit=Search

> <Link to Ligand-Target Pair in BindingDB>
http://www.bindingdb.org/jsp/dbsearch/PrimarySearch_ki.jsp?energyterm=kJ/mole&tag=r21&monomerid=291943&enzyme=ALK+tyrosine+kinase+receptor&column=ki&startPg=0&Increment=50&submit=Search

> <Ligand HET ID in PDB>


> <PDB ID(s) for Ligand-Target Complex>


> <PubChem CID>
122629219

> <PubChem SID>
381612242

> <ChEBI ID of Ligand>


> <ChEMBL ID of Ligand>


> <DrugBank ID of Ligand>


> <IUPHAR_GRAC ID of Ligand>


> <KEGG ID of Ligand>


> <ZINC ID of Ligand>


> <Number of Protein Chains in Target (>1 implies a multichain complex)>
1

> <BindingDB Target Chain Sequence>
MGAIGLLWLLPLLLSTAAVGSGMGTGQRAGSPAAGPPLQPREPLSYSRLQRKSLAVDFVVPSLFRVYARDLLLPPSSSELKAGRPEARGSLALDCAPLLRLLGPAPGVSWTAGSPAPAEARTLSRVLKGGSVRKLRRAKQLVLELGEEAILEGCVGPPGEAAVGLLQFNLSELFSWWIRQGEGRLRIRLMPEKKASEVGREGRLSAAIRASQPRLLFQIFGTGHSSLESPTNMPSPSPDYFTWNLTWIMKDSFPFLSHRSRYGLECSFDFPCELEYSPPLHDLRNQSWSWRRIPSEEASQMDLLDGPGAERSKEMPRGSFLLLNTSADSKHTILSPWMRSSSEHCTLAVSVHRHLQPSGRYIAQLLPHNEAAREILLMPTPGKHGWTVLQGRIGRPDNPFRVALEYISSGNRSLSAVDFFALKNCSEGTSPGSKMALQSSFTCWNGTVLQLGQACDFHQDCAQGEDESQMCRKLPVGFYCNFEDGFCGWTQGTLSPHTPQWQVRTLKDARFQDHQDHALLLSTTDVPASESATVTSATFPAPIKSSPCELRMSWLIRGVLRGNVSLVLVENKTGKEQGRMVWHVAAYEGLSLWQWMVLPLLDVSDRFWLQMVAWWGQGSRAIVAFDNISISLDCYLTISGEDKILQNTAPKSRNLFERNPNKELKPGENSPRQTPIFDPTVHWLFTTCGASGPHGPTQAQCNNAYQNSNLSVEVGSEGPLKGIQIWKVPATDTYSISGYGAAGGKGGKNTMMRSHGVSVLGIFNLEKDDMLYILVGQQGEDACPSTNQLIQKVCIGENNVIEEEIRVNRSVHEWAGGGGGGGGATYVFKMKDGVPVPLIIAAGGGGRAYGAKTDTFHPERLENNSSVLGLNGNSGAAGGGGGWNDNTSLLWAGKSLQEGATGGHSCPQAMKKWGWETRGGFGGGGGGCSSGGGGGGYIGGNAASNNDPEMDGEDGVSFISPLGILYTPALKVMEGHGEVNIKHYLNCSHCEVDECHMDPESHKVICFCDHGTVLAEDGVSCIVSPTPEPHLPLSLILSVVTSALVAALVLAFSGIMIVYRRKHQELQAMQMELQSPEYKLSKLRTSTIMTDYNPNYCFAGKTSSISDLKEVPRKNITLIRGLGHGAFGEVYEGQVSGMPNDPSPLQVAVKTLPEVCSEQDELDFLMEALIISKFNHQNIVRCIGVSLQSLPRFILLELMAGGDLKSFLRETRPRPSQPSSLAMLDLLHVARDIACGCQYLEENHFIHRDIAARNCLLTCPGPGRVAKIGDFGMARDIYRASYYRKGGCAMLPVKWMPPEAFMEGIFTSKTDTWSFGVLLWEIFSLGYMPYPSKSNQEVLEFVTSGGRMDPPKNCPGPVYRIMTQCWQHQPEDRPNFAIILERIEYCTQDPDVINTALPIEYGPLVEEEEKVPVRPKDPEGVPPLLVSQQAKREEERSPAAPPPLPTTSSGKAAKKPTAAEISVRVPRGPAVEGGHVNMAFSQSNPPSELHKVHGSRNKPTSLWNPTYGSWFTEKPTKKNNPIAKKEPHDRGNLGLEGSCTVPPNVATGRLPGASLLLEPSSLTANMKEVPLFRLRHFPCGNVNYGYQQQGLPLEAATAPGAGHYEDTILKSKNSMNQPGP

> <PDB ID(s) of Target Chain>
2XB7,2XBA,3AOX,5FTO,5FTQ,6E0R,6EBW,6EDL,6MX8

> <UniProt (SwissProt) Recommended Name of Target Chain>
ALK tyrosine kinase receptor

> <UniProt (SwissProt) Entry Name of Target Chain>
ALK_HUMAN

> <UniProt (SwissProt) Primary ID of Target Chain>
Q9UM73

> <UniProt (SwissProt) Secondary ID(s) of Target Chain>
Q4ZFX9,Q53QQ6,Q53RZ4,Q59FI3,Q9Y4K6

> <UniProt (SwissProt) Alternative ID(s) of Target Chain>


> <UniProt (TrEMBL) Submitted Name of Target Chain>


> <UniProt (TrEMBL) Entry Name of Target Chain>


> <UniProt (TrEMBL) Primary ID of Target Chain>


> <UniProt (TrEMBL) Secondary ID(s) of Target Chain>


> <UniProt (TrEMBL) Alternative ID(s) of Target Chain>


$$$$
00151001.cdx
  Mrv0541 02211919242D          

 36 38  0  0  0  0            999 V2000
   -2.1434    1.6500    0.0000 C   0  0  0  0  0  0  0  0  0  0  0  0
   -2.1434    0.8250    0.0000 C   0  0  0  0  0  0  0  0  0  0  0  0
   -2.8579    0.4125    0.0000 C   0  0  0  0  0  0  0  0  0  0  0  0
   -3.5724    0.8250    0.0000 C   0  0  0  0  0  0  0  0  0  0  0  0
   -3.5724    1.6500    0.0000 C   0  0  0  0  0  0  0  0  0  0  0  0
   -2.8579    2.0625    0.0000 C   0  0  0  0  0  0  0  0  0  0  0  0
   -1.4289    2.0625    0.0000 S   0  0  0  0  0  0  0  0  0  0  0  0
   -1.8414    2.7770    0.0000 O   0  0  0  0  0  0  0  0  0  0  0  0
   -1.0164    1.3480    0.0000 O   0  0  0  0  0  0  0  0  0  0  0  0
   -0.7145    2.4750    0.0000 C   0  0  0  0  0  0  0  0  0  0  0  0
   -0.7145    3.3000    0.0000 C   0  0  0  0  0  0  0  0  0  0  0  0
    0.0000    2.0625    0.0000 C   0  0  0  0  0  0  0  0  0  0  0  0
   -1.4289    0.4125    0.0000 N   0  0  0  0  0  0  0  0  0  0  0  0
   -1.4289   -0.4125    0.0000 C   0  0  0  0  0  0  0  0  0  0  0  0
   -2.1434   -0.8250    0.0000 C   0  0  0  0  0  0  0  0  0  0  0  0
   -2.1434   -1.6500    0.0000 C   0  0  0  0  0  0  0  0  0  0  0  0
   -1.4289   -2.0625    0.0000 N   0  0  0  0  0  0  0  0  0  0  0  0
   -0.7145   -1.6500    0.0000 C   0  0  0  0  0  0  0  0  0  0  0  0
   -0.7145   -0.8250    0.0000 N   0  0  0  0  0  0  0  0  0  0  0  0
   -2.8579   -0.4125    0.0000 Cl  0  0  0  0  0  0  0  0  0  0  0  0
    0.0000   -2.0625    0.0000 N   0  0  0  0  0  0  0  0  0  0  0  0
    0.7145   -1.6500    0.0000 C   0  0  0  0  0  0  0  0  0  0  0  0
    0.7145   -0.8250    0.0000 C   0  0  0  0  0  0  0  0  0  0  0  0
    1.4289   -2.0625    0.0000 C   0  0  0  0  0  0  0  0  0  0  0  0
    2.1434   -1.6500    0.0000 C   0  0  0  0  0  0  0  0  0  0  0  0
    2.1434   -0.8250    0.0000 C   0  0  0  0  0  0  0  0  0  0  0  0
    1.4289   -0.4125    0.0000 C   0  0  0  0  0  0  0  0  0  0  0  0
    1.4289   -2.8875    0.0000 O   0  0  0  0  0  0  0  0  0  0  0  0
    2.1434   -3.3000    0.0000 C   0  0  0  0  0  0  0  0  0  0  0  0
    1.4289    0.4125    0.0000 C   0  0  0  0  0  0  0  0  0  0  0  0
    2.1434    0.8250    0.0000 C   0  0  0  0  0  0  0  0  0  0  0  0
    2.1434    1.6500    0.0000 N   0  0  0  0  0  0  0  0  0  0  0  0
    2.8579    2.0625    0.0000 C   0  0  0  0  0  0  0  0  0  0  0  0
    3.5724    1.6500    0.0000 C   0  0  0  0  0  0  0  0  0  0  0  0
    1.4289    2.0625    0.0000 C   0  0  0  0  0  0  0  0  0  0  0  0
    0.7145    1.6500    0.0000 C   0  0  0  0  0  0  0  0  0  0  0  0
  1  2  4  0  0  0  0
  2  3  4  0  0  0  0
  3  4  4  0  0  0  0
  4  5  4  0  0  0  0
  5  6  4  0  0  0  0
  6  1  4  0  0  0  0
  1  7  1  0  0  0  0
  7  8  2  0  0  0  0
  7  9  2  0  0  0  0
  7 10  1  0  0  0  0
 10 11  1  0  0  0  0
 10 12  1  0  0  0  0
  2 13  1  0  0  0  0
 13 14  1  0  0  0  0
 14 15  4  0  0  0  0
 15 16  4  0  0  0  0
 16 17  4  0  0  0  0
 17 18  4  0  0  0  0
 18 19  4  0  0  0  0
 19 14  4  0  0  0  0
 15 20  1  0  0  0  0
 18 21  1  0  0  0  0
 21 22  1  0  0  0  0
 22 23  4  0  0  0  0
 22 24  4  0  0  0  0
 24 25  4  0  0  0  0
 25 26  4  0  0  0  0
 26 27  4  0  0  0  0
 27 23  4  0  0  0  0
 24 28  1  0  0  0  0
 28 29  1  0  0  0  0
 27 30  1  0  0  0  0
 30 31  1  0  0  0  0
 31 32  1  0  0  0  0
 32 33  1  0  0  0  0
 33 34  1  0  0  0  0
 32 35  1  0  0  0  0
 35 36  1  0  0  0  0
M  END
> <From>
www.bindingDB.org

> <BindingDB Reactant_set_id>
556922

> <Ligand InChI>
InChI=1S/C26H34ClN5O3S/c1-6-32(7-2)15-14-19-12-13-23(35-5)22(16-19)30-26-28-17-20(27)25(31-26)29-21-10-8-9-11-24(21)36(33,34)18(3)4/h8-13,16-18H,6-7,14-15H2,1-5H3,(H2,28,29,30,31)

> <Ligand InChI Key>
SFPSNTOXJBCKGE-UHFFFAOYSA-N

> <BindingDB MonomerID>
291944

> <BindingDB Ligand Name>
US10100019, Example 14

> <Target Name Assigned by Curator or DataSource>
ALK tyrosine kinase receptor

> <Target Source Organism According to Curator or DataSource>
Homo sapiens

> <Ki (nM)>


> <IC50 (nM)>
 1.90

> <Kd (nM)>


> <EC50 (nM)>


> <kon (M-1-s-1)>


> <koff (s-1)>


> <pH>


> <Temp C>
25.00

> <Curation/DataSource>
US Patent

> <Article DOI>
10.1016/j.bmcl.2006.04.076

> <PMID>


> <PubChem AID>


> <Patent Number>
US10100019

> <Authors>
Kim, P; Kim, HR; Cho, SY; Ha, JD; Jung, HJ; Yun, CS; Hwang, JY; Park, CH; Lee, CO; Ahn, S; Chae, CH

> <Institution>
Korea Research Institute of Chemical Technology

> <Link to Ligand in BindingDB>
http://www.bindingdb.org/bind/chemsearch/marvin/MolStructure.jsp?monomerid=291944

> <Link to Ligand-Target Pair in BindingDB>
http://www.bindingdb.org/jsp/dbsearch/PrimarySearch_ki.jsp?energyterm=kJ/mole&tag=pol&polymerid=5809&target=ALK+tyrosine+kinase+receptor&column=ki&startPg=0&Increment=50&submit=Search

> <Link to Ligand-Target Pair in BindingDB>
http://www.bindingdb.org/jsp/dbsearch/PrimarySearch_ki.jsp?energyterm=kJ/mole&tag=r21&monomerid=291944&enzyme=ALK+tyrosine+kinase+receptor&column=ki&startPg=0&Increment=50&submit=Search

> <Ligand HET ID in PDB>


> <PDB ID(s) for Ligand-Target Complex>


> <PubChem CID>
134449919

> <PubChem SID>
381612243

> <ChEBI ID of Ligand>


> <ChEMBL ID of Ligand>


> <DrugBank ID of Ligand>


> <IUPHAR_GRAC ID of Ligand>


> <KEGG ID of Ligand>


> <ZINC ID of Ligand>


> <Number of Protein Chains in Target (>1 implies a multichain complex)>
1

> <BindingDB Target Chain Sequence>
MGAIGLLWLLPLLLSTAAVGSGMGTGQRAGSPAAGPPLQPREPLSYSRLQRKSLAVDFVVPSLFRVYARDLLLPPSSSELKAGRPEARGSLALDCAPLLRLLGPAPGVSWTAGSPAPAEARTLSRVLKGGSVRKLRRAKQLVLELGEEAILEGCVGPPGEAAVGLLQFNLSELFSWWIRQGEGRLRIRLMPEKKASEVGREGRLSAAIRASQPRLLFQIFGTGHSSLESPTNMPSPSPDYFTWNLTWIMKDSFPFLSHRSRYGLECSFDFPCELEYSPPLHDLRNQSWSWRRIPSEEASQMDLLDGPGAERSKEMPRGSFLLLNTSADSKHTILSPWMRSSSEHCTLAVSVHRHLQPSGRYIAQLLPHNEAAREILLMPTPGKHGWTVLQGRIGRPDNPFRVALEYISSGNRSLSAVDFFALKNCSEGTSPGSKMALQSSFTCWNGTVLQLGQACDFHQDCAQGEDESQMCRKLPVGFYCNFEDGFCGWTQGTLSPHTPQWQVRTLKDARFQDHQDHALLLSTTDVPASESATVTSATFPAPIKSSPCELRMSWLIRGVLRGNVSLVLVENKTGKEQGRMVWHVAAYEGLSLWQWMVLPLLDVSDRFWLQMVAWWGQGSRAIVAFDNISISLDCYLTISGEDKILQNTAPKSRNLFERNPNKELKPGENSPRQTPIFDPTVHWLFTTCGASGPHGPTQAQCNNAYQNSNLSVEVGSEGPLKGIQIWKVPATDTYSISGYGAAGGKGGKNTMMRSHGVSVLGIFNLEKDDMLYILVGQQGEDACPSTNQLIQKVCIGENNVIEEEIRVNRSVHEWAGGGGGGGGATYVFKMKDGVPVPLIIAAGGGGRAYGAKTDTFHPERLENNSSVLGLNGNSGAAGGGGGWNDNTSLLWAGKSLQEGATGGHSCPQAMKKWGWETRGGFGGGGGGCSSGGGGGGYIGGNAASNNDPEMDGEDGVSFISPLGILYTPALKVMEGHGEVNIKHYLNCSHCEVDECHMDPESHKVICFCDHGTVLAEDGVSCIVSPTPEPHLPLSLILSVVTSALVAALVLAFSGIMIVYRRKHQELQAMQMELQSPEYKLSKLRTSTIMTDYNPNYCFAGKTSSISDLKEVPRKNITLIRGLGHGAFGEVYEGQVSGMPNDPSPLQVAVKTLPEVCSEQDELDFLMEALIISKFNHQNIVRCIGVSLQSLPRFILLELMAGGDLKSFLRETRPRPSQPSSLAMLDLLHVARDIACGCQYLEENHFIHRDIAARNCLLTCPGPGRVAKIGDFGMARDIYRASYYRKGGCAMLPVKWMPPEAFMEGIFTSKTDTWSFGVLLWEIFSLGYMPYPSKSNQEVLEFVTSGGRMDPPKNCPGPVYRIMTQCWQHQPEDRPNFAIILERIEYCTQDPDVINTALPIEYGPLVEEEEKVPVRPKDPEGVPPLLVSQQAKREEERSPAAPPPLPTTSSGKAAKKPTAAEISVRVPRGPAVEGGHVNMAFSQSNPPSELHKVHGSRNKPTSLWNPTYGSWFTEKPTKKNNPIAKKEPHDRGNLGLEGSCTVPPNVATGRLPGASLLLEPSSLTANMKEVPLFRLRHFPCGNVNYGYQQQGLPLEAATAPGAGHYEDTILKSKNSMNQPGP

> <PDB ID(s) of Target Chain>
2XB7,2XBA,3AOX,5FTO,5FTQ,6E0R,6EBW,6EDL,6MX8

> <UniProt (SwissProt) Recommended Name of Target Chain>
ALK tyrosine kinase receptor

> <UniProt (SwissProt) Entry Name of Target Chain>
ALK_HUMAN

> <UniProt (SwissProt) Primary ID of Target Chain>
Q9UM73

> <UniProt (SwissProt) Secondary ID(s) of Target Chain>
Q4ZFX9,Q53QQ6,Q53RZ4,Q59FI3,Q9Y4K6

> <UniProt (SwissProt) Alternative ID(s) of Target Chain>


> <UniProt (TrEMBL) Submitted Name of Target Chain>


> <UniProt (TrEMBL) Entry Name of Target Chain>


> <UniProt (TrEMBL) Primary ID of Target Chain>


> <UniProt (TrEMBL) Secondary ID(s) of Target Chain>


> <UniProt (TrEMBL) Alternative ID(s) of Target Chain>


$$$$
00147001.cdx
  Mrv0541 02211919242D          

 35 37  0  0  0  0            999 V2000
   -2.1434    1.6500    0.0000 C   0  0  0  0  0  0  0  0  0  0  0  0
   -2.1434    0.8250    0.0000 C   0  0  0  0  0  0  0  0  0  0  0  0
   -2.8579    0.4125    0.0000 C   0  0  0  0  0  0  0  0  0  0  0  0
   -3.5724    0.8250    0.0000 C   0  0  0  0  0  0  0  0  0  0  0  0
   -3.5724    1.6500    0.0000 C   0  0  0  0  0  0  0  0  0  0  0  0
   -2.8579    2.0625    0.0000 C   0  0  0  0  0  0  0  0  0  0  0  0
   -1.4289    2.0625    0.0000 S   0  0  0  0  0  0  0  0  0  0  0  0
   -1.8414    2.7770    0.0000 O   0  0  0  0  0  0  0  0  0  0  0  0
   -1.0164    1.3480    0.0000 O   0  0  0  0  0  0  0  0  0  0  0  0
   -0.7145    2.4750    0.0000 C   0  0  0  0  0  0  0  0  0  0  0  0
   -0.7145    3.3000    0.0000 C   0  0  0  0  0  0  0  0  0  0  0  0
    0.0000    2.0625    0.0000 C   0  0  0  0  0  0  0  0  0  0  0  0
   -1.4289    0.4125    0.0000 N   0  0  0  0  0  0  0  0  0  0  0  0
   -1.4289   -0.4125    0.0000 C   0  0  0  0  0  0  0  0  0  0  0  0
   -2.1434   -0.8250    0.0000 C   0  0  0  0  0  0  0  0  0  0  0  0
   -2.1434   -1.6500    0.0000 C   0  0  0  0  0  0  0  0  0  0  0  0
   -1.4289   -2.0625    0.0000 N   0  0  0  0  0  0  0  0  0  0  0  0
   -0.7145   -1.6500    0.0000 C   0  0  0  0  0  0  0  0  0  0  0  0
   -0.7145   -0.8250    0.0000 N   0  0  0  0  0  0  0  0  0  0  0  0
   -2.8579   -0.4125    0.0000 Cl  0  0  0  0  0  0  0  0  0  0  0  0
    0.0000   -2.0625    0.0000 N   0  0  0  0  0  0  0  0  0  0  0  0
    0.7145   -1.6500    0.0000 C   0  0  0  0  0  0  0  0  0  0  0  0
    0.7145   -0.8250    0.0000 C   0  0  0  0  0  0  0  0  0  0  0  0
    1.4289   -2.0625    0.0000 C   0  0  0  0  0  0  0  0  0  0  0  0
    2.1434   -1.6500    0.0000 C   0  0  0  0  0  0  0  0  0  0  0  0
    2.1434   -0.8250    0.0000 C   0  0  0  0  0  0  0  0  0  0  0  0
    1.4289   -0.4125    0.0000 C   0  0  0  0  0  0  0  0  0  0  0  0
    1.4289   -2.8875    0.0000 O   0  0  0  0  0  0  0  0  0  0  0  0
    2.1434   -3.3000    0.0000 C   0  0  0  0  0  0  0  0  0  0  0  0
    1.4289    0.4125    0.0000 C   0  0  0  0  0  0  0  0  0  0  0  0
    2.1434    0.8250    0.0000 C   0  0  0  0  0  0  0  0  0  0  0  0
    2.1434    1.6500    0.0000 N   0  0  0  0  0  0  0  0  0  0  0  0
    2.8579    2.0625    0.0000 C   0  0  0  0  0  0  0  0  0  0  0  0
    3.5724    1.6500    0.0000 C   0  0  0  0  0  0  0  0  0  0  0  0
    2.8579    2.8875    0.0000 C   0  0  0  0  0  0  0  0  0  0  0  0
  1  2  4  0  0  0  0
  2  3  4  0  0  0  0
  3  4  4  0  0  0  0
  4  5  4  0  0  0  0
  5  6  4  0  0  0  0
  6  1  4  0  0  0  0
  1  7  1  0  0  0  0
  7  8  2  0  0  0  0
  7  9  2  0  0  0  0
  7 10  1  0  0  0  0
 10 11  1  0  0  0  0
 10 12  1  0  0  0  0
  2 13  1  0  0  0  0
 13 14  1  0  0  0  0
 14 15  4  0  0  0  0
 15 16  4  0  0  0  0
 16 17  4  0  0  0  0
 17 18  4  0  0  0  0
 18 19  4  0  0  0  0
 19 14  4  0  0  0  0
 15 20  1  0  0  0  0
 18 21  1  0  0  0  0
 21 22  1  0  0  0  0
 22 23  4  0  0  0  0
 22 24  4  0  0  0  0
 24 25  4  0  0  0  0
 25 26  4  0  0  0  0
 26 27  4  0  0  0  0
 27 23  4  0  0  0  0
 24 28  1  0  0  0  0
 28 29  1  0  0  0  0
 27 30  1  0  0  0  0
 30 31  1  0  0  0  0
 31 32  1  0  0  0  0
 32 33  1  0  0  0  0
 33 34  1  0  0  0  0
 33 35  1  0  0  0  0
M  END
> <From>
www.bindingDB.org

> <BindingDB Reactant_set_id>
556923

> <Ligand InChI>
InChI=1S/C25H32ClN5O3S/c1-16(2)27-13-12-18-10-11-22(34-5)21(14-18)30-25-28-15-19(26)24(31-25)29-20-8-6-7-9-23(20)35(32,33)17(3)4/h6-11,14-17,27H,12-13H2,1-5H3,(H2,28,29,30,31)

> <Ligand InChI Key>
AEFLOLLJJAKGQJ-UHFFFAOYSA-N

> <BindingDB MonomerID>
291945

> <BindingDB Ligand Name>
US10100019, Example 15

> <Target Name Assigned by Curator or DataSource>
ALK tyrosine kinase receptor

> <Target Source Organism According to Curator or DataSource>
Homo sapiens

> <Ki (nM)>


> <IC50 (nM)>
 2.60

> <Kd (nM)>


> <EC50 (nM)>


> <kon (M-1-s-1)>


> <koff (s-1)>


> <pH>


> <Temp C>
25.00

> <Curation/DataSource>
US Patent

> <Article DOI>
10.1016/j.bmcl.2006.04.076

> <PMID>


> <PubChem AID>


> <Patent Number>
US10100019

> <Authors>
Kim, P; Kim, HR; Cho, SY; Ha, JD; Jung, HJ; Yun, CS; Hwang, JY; Park, CH; Lee, CO; Ahn, S; Chae, CH

> <Institution>
Korea Research Institute of Chemical Technology

> <Link to Ligand in BindingDB>
http://www.bindingdb.org/bind/chemsearch/marvin/MolStructure.jsp?monomerid=291945

> <Link to Ligand-Target Pair in BindingDB>
http://www.bindingdb.org/jsp/dbsearch/PrimarySearch_ki.jsp?energyterm=kJ/mole&tag=pol&polymerid=5809&target=ALK+tyrosine+kinase+receptor&column=ki&startPg=0&Increment=50&submit=Search

> <Link to Ligand-Target Pair in BindingDB>
http://www.bindingdb.org/jsp/dbsearch/PrimarySearch_ki.jsp?energyterm=kJ/mole&tag=r21&monomerid=291945&enzyme=ALK+tyrosine+kinase+receptor&column=ki&startPg=0&Increment=50&submit=Search

> <Ligand HET ID in PDB>


> <PDB ID(s) for Ligand-Target Complex>


> <PubChem CID>
134449923

> <PubChem SID>
381612244

> <ChEBI ID of Ligand>


> <ChEMBL ID of Ligand>


> <DrugBank ID of Ligand>


> <IUPHAR_GRAC ID of Ligand>


> <KEGG ID of Ligand>


> <ZINC ID of Ligand>


> <Number of Protein Chains in Target (>1 implies a multichain complex)>
1

> <BindingDB Target Chain Sequence>
MGAIGLLWLLPLLLSTAAVGSGMGTGQRAGSPAAGPPLQPREPLSYSRLQRKSLAVDFVVPSLFRVYARDLLLPPSSSELKAGRPEARGSLALDCAPLLRLLGPAPGVSWTAGSPAPAEARTLSRVLKGGSVRKLRRAKQLVLELGEEAILEGCVGPPGEAAVGLLQFNLSELFSWWIRQGEGRLRIRLMPEKKASEVGREGRLSAAIRASQPRLLFQIFGTGHSSLESPTNMPSPSPDYFTWNLTWIMKDSFPFLSHRSRYGLECSFDFPCELEYSPPLHDLRNQSWSWRRIPSEEASQMDLLDGPGAERSKEMPRGSFLLLNTSADSKHTILSPWMRSSSEHCTLAVSVHRHLQPSGRYIAQLLPHNEAAREILLMPTPGKHGWTVLQGRIGRPDNPFRVALEYISSGNRSLSAVDFFALKNCSEGTSPGSKMALQSSFTCWNGTVLQLGQACDFHQDCAQGEDESQMCRKLPVGFYCNFEDGFCGWTQGTLSPHTPQWQVRTLKDARFQDHQDHALLLSTTDVPASESATVTSATFPAPIKSSPCELRMSWLIRGVLRGNVSLVLVENKTGKEQGRMVWHVAAYEGLSLWQWMVLPLLDVSDRFWLQMVAWWGQGSRAIVAFDNISISLDCYLTISGEDKILQNTAPKSRNLFERNPNKELKPGENSPRQTPIFDPTVHWLFTTCGASGPHGPTQAQCNNAYQNSNLSVEVGSEGPLKGIQIWKVPATDTYSISGYGAAGGKGGKNTMMRSHGVSVLGIFNLEKDDMLYILVGQQGEDACPSTNQLIQKVCIGENNVIEEEIRVNRSVHEWAGGGGGGGGATYVFKMKDGVPVPLIIAAGGGGRAYGAKTDTFHPERLENNSSVLGLNGNSGAAGGGGGWNDNTSLLWAGKSLQEGATGGHSCPQAMKKWGWETRGGFGGGGGGCSSGGGGGGYIGGNAASNNDPEMDGEDGVSFISPLGILYTPALKVMEGHGEVNIKHYLNCSHCEVDECHMDPESHKVICFCDHGTVLAEDGVSCIVSPTPEPHLPLSLILSVVTSALVAALVLAFSGIMIVYRRKHQELQAMQMELQSPEYKLSKLRTSTIMTDYNPNYCFAGKTSSISDLKEVPRKNITLIRGLGHGAFGEVYEGQVSGMPNDPSPLQVAVKTLPEVCSEQDELDFLMEALIISKFNHQNIVRCIGVSLQSLPRFILLELMAGGDLKSFLRETRPRPSQPSSLAMLDLLHVARDIACGCQYLEENHFIHRDIAARNCLLTCPGPGRVAKIGDFGMARDIYRASYYRKGGCAMLPVKWMPPEAFMEGIFTSKTDTWSFGVLLWEIFSLGYMPYPSKSNQEVLEFVTSGGRMDPPKNCPGPVYRIMTQCWQHQPEDRPNFAIILERIEYCTQDPDVINTALPIEYGPLVEEEEKVPVRPKDPEGVPPLLVSQQAKREEERSPAAPPPLPTTSSGKAAKKPTAAEISVRVPRGPAVEGGHVNMAFSQSNPPSELHKVHGSRNKPTSLWNPTYGSWFTEKPTKKNNPIAKKEPHDRGNLGLEGSCTVPPNVATGRLPGASLLLEPSSLTANMKEVPLFRLRHFPCGNVNYGYQQQGLPLEAATAPGAGHYEDTILKSKNSMNQPGP

> <PDB ID(s) of Target Chain>
2XB7,2XBA,3AOX,5FTO,5FTQ,6E0R,6EBW,6EDL,6MX8

> <UniProt (SwissProt) Recommended Name of Target Chain>
ALK tyrosine kinase receptor

> <UniProt (SwissProt) Entry Name of Target Chain>
ALK_HUMAN

> <UniProt (SwissProt) Primary ID of Target Chain>
Q9UM73

> <UniProt (SwissProt) Secondary ID(s) of Target Chain>
Q4ZFX9,Q53QQ6,Q53RZ4,Q59FI3,Q9Y4K6

> <UniProt (SwissProt) Alternative ID(s) of Target Chain>


> <UniProt (TrEMBL) Submitted Name of Target Chain>


> <UniProt (TrEMBL) Entry Name of Target Chain>


> <UniProt (TrEMBL) Primary ID of Target Chain>


> <UniProt (TrEMBL) Secondary ID(s) of Target Chain>


> <UniProt (TrEMBL) Alternative ID(s) of Target Chain>


$$$$
00152001.cdx
  Mrv0541 02211919242D          

 37 39  0  0  0  0            999 V2000
   -2.8579    1.6500    0.0000 C   0  0  0  0  0  0  0  0  0  0  0  0
   -2.8579    0.8250    0.0000 C   0  0  0  0  0  0  0  0  0  0  0  0
   -3.5724    0.4125    0.0000 C   0  0  0  0  0  0  0  0  0  0  0  0
   -4.2868    0.8250    0.0000 C   0  0  0  0  0  0  0  0  0  0  0  0
   -4.2868    1.6500    0.0000 C   0  0  0  0  0  0  0  0  0  0  0  0
   -3.5724    2.0625    0.0000 C   0  0  0  0  0  0  0  0  0  0  0  0
   -2.1434    2.0625    0.0000 S   0  0  0  0  0  0  0  0  0  0  0  0
   -2.5559    2.7770    0.0000 O   0  0  0  0  0  0  0  0  0  0  0  0
   -1.7309    1.3480    0.0000 O   0  0  0  0  0  0  0  0  0  0  0  0
   -1.4289    2.4750    0.0000 C   0  0  0  0  0  0  0  0  0  0  0  0
   -1.4289    3.3000    0.0000 C   0  0  0  0  0  0  0  0  0  0  0  0
   -0.7145    2.0625    0.0000 C   0  0  0  0  0  0  0  0  0  0  0  0
   -2.1434    0.4125    0.0000 N   0  0  0  0  0  0  0  0  0  0  0  0
   -2.1434   -0.4125    0.0000 C   0  0  0  0  0  0  0  0  0  0  0  0
   -2.8579   -0.8250    0.0000 C   0  0  0  0  0  0  0  0  0  0  0  0
   -2.8579   -1.6500    0.0000 C   0  0  0  0  0  0  0  0  0  0  0  0
   -2.1434   -2.0625    0.0000 N   0  0  0  0  0  0  0  0  0  0  0  0
   -1.4289   -1.6500    0.0000 C   0  0  0  0  0  0  0  0  0  0  0  0
   -1.4289   -0.8250    0.0000 N   0  0  0  0  0  0  0  0  0  0  0  0
   -3.5724   -0.4125    0.0000 Cl  0  0  0  0  0  0  0  0  0  0  0  0
   -0.7145   -2.0625    0.0000 N   0  0  0  0  0  0  0  0  0  0  0  0
    0.0000   -1.6500    0.0000 C   0  0  0  0  0  0  0  0  0  0  0  0
    0.0000   -0.8250    0.0000 C   0  0  0  0  0  0  0  0  0  0  0  0
    0.7145   -2.0625    0.0000 C   0  0  0  0  0  0  0  0  0  0  0  0
    1.4289   -1.6500    0.0000 C   0  0  0  0  0  0  0  0  0  0  0  0
    1.4289   -0.8250    0.0000 C   0  0  0  0  0  0  0  0  0  0  0  0
    0.7145   -0.4125    0.0000 C   0  0  0  0  0  0  0  0  0  0  0  0
    0.7145   -2.8875    0.0000 O   0  0  0  0  0  0  0  0  0  0  0  0
    1.4289   -3.3000    0.0000 C   0  0  0  0  0  0  0  0  0  0  0  0
    0.7145    0.4125    0.0000 C   0  0  0  0  0  0  0  0  0  0  0  0
    1.4289    0.8250    0.0000 C   0  0  0  0  0  0  0  0  0  0  0  0
    2.1434    0.4125    0.0000 N   0  0  0  0  0  0  0  0  0  0  0  0
    2.8579    0.8250    0.0000 C   0  0  0  0  0  0  0  0  0  0  0  0
    2.8579    1.6500    0.0000 N   0  0  0  0  0  0  0  0  0  0  0  0
    3.5724    2.0625    0.0000 C   0  0  0  0  0  0  0  0  0  0  0  0
    4.2868    1.6500    0.0000 C   0  0  0  0  0  0  0  0  0  0  0  0
    3.5724    0.4125    0.0000 O   0  0  0  0  0  0  0  0  0  0  0  0
  1  2  4  0  0  0  0
  2  3  4  0  0  0  0
  3  4  4  0  0  0  0
  4  5  4  0  0  0  0
  5  6  4  0  0  0  0
  6  1  4  0  0  0  0
  1  7  1  0  0  0  0
  7  8  2  0  0  0  0
  7  9  2  0  0  0  0
  7 10  1  0  0  0  0
 10 11  1  0  0  0  0
 10 12  1  0  0  0  0
  2 13  1  0  0  0  0
 13 14  1  0  0  0  0
 14 15  4  0  0  0  0
 15 16  4  0  0  0  0
 16 17  4  0  0  0  0
 17 18  4  0  0  0  0
 18 19  4  0  0  0  0
 19 14  4  0  0  0  0
 15 20  1  0  0  0  0
 18 21  1  0  0  0  0
 21 22  1  0  0  0  0
 22 23  4  0  0  0  0
 22 24  4  0  0  0  0
 24 25  4  0  0  0  0
 25 26  4  0  0  0  0
 26 27  4  0  0  0  0
 27 23  4  0  0  0  0
 24 28  1  0  0  0  0
 28 29  1  0  0  0  0
 27 30  1  0  0  0  0
 30 31  1  0  0  0  0
 31 32  1  0  0  0  0
 32 33  1  0  0  0  0
 33 34  1  0  0  0  0
 34 35  1  0  0  0  0
 35 36  1  0  0  0  0
 33 37  2  0  0  0  0
M  END
> <From>
www.bindingDB.org

> <BindingDB Reactant_set_id>
556924

> <Ligand InChI>
InChI=1S/C25H31ClN6O4S/c1-5-27-25(33)28-13-12-17-10-11-21(36-4)20(14-17)31-24-29-15-18(26)23(32-24)30-19-8-6-7-9-22(19)37(34,35)16(2)3/h6-11,14-16H,5,12-13H2,1-4H3,(H2,27,28,33)(H2,29,30,31,32)

> <Ligand InChI Key>
DRPOUFRDMKUUKI-UHFFFAOYSA-N

> <BindingDB MonomerID>
291946

> <BindingDB Ligand Name>
US10100019, Example 16

> <Target Name Assigned by Curator or DataSource>
ALK tyrosine kinase receptor

> <Target Source Organism According to Curator or DataSource>
Homo sapiens

> <Ki (nM)>


> <IC50 (nM)>
 10.00

> <Kd (nM)>


> <EC50 (nM)>


> <kon (M-1-s-1)>


> <koff (s-1)>


> <pH>


> <Temp C>
25.00

> <Curation/DataSource>
US Patent

> <Article DOI>
10.1016/j.bmcl.2006.04.076

> <PMID>


> <PubChem AID>


> <Patent Number>
US10100019

> <Authors>
Kim, P; Kim, HR; Cho, SY; Ha, JD; Jung, HJ; Yun, CS; Hwang, JY; Park, CH; Lee, CO; Ahn, S; Chae, CH

> <Institution>
Korea Research Institute of Chemical Technology

> <Link to Ligand in BindingDB>
http://www.bindingdb.org/bind/chemsearch/marvin/MolStructure.jsp?monomerid=291946

> <Link to Ligand-Target Pair in BindingDB>
http://www.bindingdb.org/jsp/dbsearch/PrimarySearch_ki.jsp?energyterm=kJ/mole&tag=pol&polymerid=5809&target=ALK+tyrosine+kinase+receptor&column=ki&startPg=0&Increment=50&submit=Search

> <Link to Ligand-Target Pair in BindingDB>
http://www.bindingdb.org/jsp/dbsearch/PrimarySearch_ki.jsp?energyterm=kJ/mole&tag=r21&monomerid=291946&enzyme=ALK+tyrosine+kinase+receptor&column=ki&startPg=0&Increment=50&submit=Search

> <Ligand HET ID in PDB>


> <PDB ID(s) for Ligand-Target Complex>


> <PubChem CID>
122629304

> <PubChem SID>
381612245

> <ChEBI ID of Ligand>


> <ChEMBL ID of Ligand>


> <DrugBank ID of Ligand>


> <IUPHAR_GRAC ID of Ligand>


> <KEGG ID of Ligand>


> <ZINC ID of Ligand>


> <Number of Protein Chains in Target (>1 implies a multichain complex)>
1

> <BindingDB Target Chain Sequence>
MGAIGLLWLLPLLLSTAAVGSGMGTGQRAGSPAAGPPLQPREPLSYSRLQRKSLAVDFVVPSLFRVYARDLLLPPSSSELKAGRPEARGSLALDCAPLLRLLGPAPGVSWTAGSPAPAEARTLSRVLKGGSVRKLRRAKQLVLELGEEAILEGCVGPPGEAAVGLLQFNLSELFSWWIRQGEGRLRIRLMPEKKASEVGREGRLSAAIRASQPRLLFQIFGTGHSSLESPTNMPSPSPDYFTWNLTWIMKDSFPFLSHRSRYGLECSFDFPCELEYSPPLHDLRNQSWSWRRIPSEEASQMDLLDGPGAERSKEMPRGSFLLLNTSADSKHTILSPWMRSSSEHCTLAVSVHRHLQPSGRYIAQLLPHNEAAREILLMPTPGKHGWTVLQGRIGRPDNPFRVALEYISSGNRSLSAVDFFALKNCSEGTSPGSKMALQSSFTCWNGTVLQLGQACDFHQDCAQGEDESQMCRKLPVGFYCNFEDGFCGWTQGTLSPHTPQWQVRTLKDARFQDHQDHALLLSTTDVPASESATVTSATFPAPIKSSPCELRMSWLIRGVLRGNVSLVLVENKTGKEQGRMVWHVAAYEGLSLWQWMVLPLLDVSDRFWLQMVAWWGQGSRAIVAFDNISISLDCYLTISGEDKILQNTAPKSRNLFERNPNKELKPGENSPRQTPIFDPTVHWLFTTCGASGPHGPTQAQCNNAYQNSNLSVEVGSEGPLKGIQIWKVPATDTYSISGYGAAGGKGGKNTMMRSHGVSVLGIFNLEKDDMLYILVGQQGEDACPSTNQLIQKVCIGENNVIEEEIRVNRSVHEWAGGGGGGGGATYVFKMKDGVPVPLIIAAGGGGRAYGAKTDTFHPERLENNSSVLGLNGNSGAAGGGGGWNDNTSLLWAGKSLQEGATGGHSCPQAMKKWGWETRGGFGGGGGGCSSGGGGGGYIGGNAASNNDPEMDGEDGVSFISPLGILYTPALKVMEGHGEVNIKHYLNCSHCEVDECHMDPESHKVICFCDHGTVLAEDGVSCIVSPTPEPHLPLSLILSVVTSALVAALVLAFSGIMIVYRRKHQELQAMQMELQSPEYKLSKLRTSTIMTDYNPNYCFAGKTSSISDLKEVPRKNITLIRGLGHGAFGEVYEGQVSGMPNDPSPLQVAVKTLPEVCSEQDELDFLMEALIISKFNHQNIVRCIGVSLQSLPRFILLELMAGGDLKSFLRETRPRPSQPSSLAMLDLLHVARDIACGCQYLEENHFIHRDIAARNCLLTCPGPGRVAKIGDFGMARDIYRASYYRKGGCAMLPVKWMPPEAFMEGIFTSKTDTWSFGVLLWEIFSLGYMPYPSKSNQEVLEFVTSGGRMDPPKNCPGPVYRIMTQCWQHQPEDRPNFAIILERIEYCTQDPDVINTALPIEYGPLVEEEEKVPVRPKDPEGVPPLLVSQQAKREEERSPAAPPPLPTTSSGKAAKKPTAAEISVRVPRGPAVEGGHVNMAFSQSNPPSELHKVHGSRNKPTSLWNPTYGSWFTEKPTKKNNPIAKKEPHDRGNLGLEGSCTVPPNVATGRLPGASLLLEPSSLTANMKEVPLFRLRHFPCGNVNYGYQQQGLPLEAATAPGAGHYEDTILKSKNSMNQPGP

> <PDB ID(s) of Target Chain>
2XB7,2XBA,3AOX,5FTO,5FTQ,6E0R,6EBW,6EDL,6MX8

> <UniProt (SwissProt) Recommended Name of Target Chain>
ALK tyrosine kinase receptor

> <UniProt (SwissProt) Entry Name of Target Chain>
ALK_HUMAN

> <UniProt (SwissProt) Primary ID of Target Chain>
Q9UM73

> <UniProt (SwissProt) Secondary ID(s) of Target Chain>
Q4ZFX9,Q53QQ6,Q53RZ4,Q59FI3,Q9Y4K6

> <UniProt (SwissProt) Alternative ID(s) of Target Chain>


> <UniProt (TrEMBL) Submitted Name of Target Chain>


> <UniProt (TrEMBL) Entry Name of Target Chain>


> <UniProt (TrEMBL) Primary ID of Target Chain>


> <UniProt (TrEMBL) Secondary ID(s) of Target Chain>


> <UniProt (TrEMBL) Alternative ID(s) of Target Chain>


$$$$
00148001.cdx
  Mrv0541 02211919242D          

 41 44  0  0  0  0            999 V2000
   -3.2151    1.6500    0.0000 C   0  0  0  0  0  0  0  0  0  0  0  0
   -3.2151    0.8250    0.0000 C   0  0  0  0  0  0  0  0  0  0  0  0
   -3.9296    0.4125    0.0000 C   0  0  0  0  0  0  0  0  0  0  0  0
   -4.6441    0.8250    0.0000 C   0  0  0  0  0  0  0  0  0  0  0  0
   -4.6441    1.6500    0.0000 C   0  0  0  0  0  0  0  0  0  0  0  0
   -3.9296    2.0625    0.0000 C   0  0  0  0  0  0  0  0  0  0  0  0
   -2.5006    2.0625    0.0000 S   0  0  0  0  0  0  0  0  0  0  0  0
   -2.9131    2.7770    0.0000 O   0  0  0  0  0  0  0  0  0  0  0  0
   -2.0881    1.3480    0.0000 O   0  0  0  0  0  0  0  0  0  0  0  0
   -1.7862    2.4750    0.0000 C   0  0  0  0  0  0  0  0  0  0  0  0
   -1.7862    3.3000    0.0000 C   0  0  0  0  0  0  0  0  0  0  0  0
   -1.0717    2.0625    0.0000 C   0  0  0  0  0  0  0  0  0  0  0  0
   -2.5006    0.4125    0.0000 N   0  0  0  0  0  0  0  0  0  0  0  0
   -2.5006   -0.4125    0.0000 C   0  0  0  0  0  0  0  0  0  0  0  0
   -3.2151   -0.8250    0.0000 C   0  0  0  0  0  0  0  0  0  0  0  0
   -3.2151   -1.6500    0.0000 C   0  0  0  0  0  0  0  0  0  0  0  0
   -2.5006   -2.0625    0.0000 N   0  0  0  0  0  0  0  0  0  0  0  0
   -1.7862   -1.6500    0.0000 C   0  0  0  0  0  0  0  0  0  0  0  0
   -1.7862   -0.8250    0.0000 N   0  0  0  0  0  0  0  0  0  0  0  0
   -3.9296   -0.4125    0.0000 Cl  0  0  0  0  0  0  0  0  0  0  0  0
   -1.0717   -2.0625    0.0000 N   0  0  0  0  0  0  0  0  0  0  0  0
   -0.3572   -1.6500    0.0000 C   0  0  0  0  0  0  0  0  0  0  0  0
   -0.3572   -0.8250    0.0000 C   0  0  0  0  0  0  0  0  0  0  0  0
    0.3572   -2.0625    0.0000 C   0  0  0  0  0  0  0  0  0  0  0  0
    1.0717   -1.6500    0.0000 C   0  0  0  0  0  0  0  0  0  0  0  0
    1.0717   -0.8250    0.0000 C   0  0  0  0  0  0  0  0  0  0  0  0
    0.3572   -0.4125    0.0000 C   0  0  0  0  0  0  0  0  0  0  0  0
    0.3572   -2.8875    0.0000 O   0  0  0  0  0  0  0  0  0  0  0  0
    1.0717   -3.3000    0.0000 C   0  0  0  0  0  0  0  0  0  0  0  0
    0.3572    0.4125    0.0000 C   0  0  0  0  0  0  0  0  0  0  0  0
    1.0717    0.8250    0.0000 C   0  0  0  0  0  0  0  0  0  0  0  0
    1.7862    0.4125    0.0000 N   0  0  0  0  0  0  0  0  0  0  0  0
    2.5006    0.8250    0.0000 C   0  0  0  0  0  0  0  0  0  0  0  0
    2.5006    1.6500    0.0000 N   0  0  0  0  0  0  0  0  0  0  0  0
    3.2151    2.0625    0.0000 C   0  0  0  0  0  0  0  0  0  0  0  0
    3.2151    2.8875    0.0000 C   0  0  0  0  0  0  0  0  0  0  0  0
    3.9296    1.6500    0.0000 C   0  0  0  0  0  0  0  0  0  0  0  0
    4.6441    2.0625    0.0000 C   0  0  0  0  0  0  0  0  0  0  0  0
    4.6441    2.8875    0.0000 C   0  0  0  0  0  0  0  0  0  0  0  0
    3.9296    3.3000    0.0000 C   0  0  0  0  0  0  0  0  0  0  0  0
    3.2151    0.4125    0.0000 O   0  0  0  0  0  0  0  0  0  0  0  0
  1  2  4  0  0  0  0
  2  3  4  0  0  0  0
  3  4  4  0  0  0  0
  4  5  4  0  0  0  0
  5  6  4  0  0  0  0
  6  1  4  0  0  0  0
  1  7  1  0  0  0  0
  7  8  2  0  0  0  0
  7  9  2  0  0  0  0
  7 10  1  0  0  0  0
 10 11  1  0  0  0  0
 10 12  1  0  0  0  0
  2 13  1  0  0  0  0
 13 14  1  0  0  0  0
 14 15  4  0  0  0  0
 15 16  4  0  0  0  0
 16 17  4  0  0  0  0
 17 18  4  0  0  0  0
 18 19  4  0  0  0  0
 19 14  4  0  0  0  0
 15 20  1  0  0  0  0
 18 21  1  0  0  0  0
 21 22  1  0  0  0  0
 22 23  4  0  0  0  0
 22 24  4  0  0  0  0
 24 25  4  0  0  0  0
 25 26  4  0  0  0  0
 26 27  4  0  0  0  0
 27 23  4  0  0  0  0
 24 28  1  0  0  0  0
 28 29  1  0  0  0  0
 27 30  1  0  0  0  0
 30 31  1  0  0  0  0
 31 32  1  0  0  0  0
 32 33  1  0  0  0  0
 33 34  1  0  0  0  0
 34 35  1  0  0  0  0
 35 36  1  0  0  0  0
 35 37  1  0  0  0  0
 37 38  1  0  0  0  0
 38 39  1  0  0  0  0
 39 40  1  0  0  0  0
 40 36  1  0  0  0  0
 33 41  2  0  0  0  0
M  END
> <From>
www.bindingDB.org

> <BindingDB Reactant_set_id>
556925

> <Ligand InChI>
InChI=1S/C29H37ClN6O4S/c1-19(2)41(38,39)26-12-8-7-11-23(26)34-27-22(30)18-32-28(36-27)35-24-17-20(13-14-25(24)40-3)15-16-31-29(37)33-21-9-5-4-6-10-21/h7-8,11-14,17-19,21H,4-6,9-10,15-16H2,1-3H3,(H2,31,33,37)(H2,32,34,35,36)

> <Ligand InChI Key>
YIHUYKCYYKDOHR-UHFFFAOYSA-N

> <BindingDB MonomerID>
291947

> <BindingDB Ligand Name>
US10100019, Example 17

> <Target Name Assigned by Curator or DataSource>
ALK tyrosine kinase receptor

> <Target Source Organism According to Curator or DataSource>
Homo sapiens

> <Ki (nM)>


> <IC50 (nM)>
 40.0

> <Kd (nM)>


> <EC50 (nM)>


> <kon (M-1-s-1)>


> <koff (s-1)>


> <pH>


> <Temp C>
25.00

> <Curation/DataSource>
US Patent

> <Article DOI>
10.1016/j.bmcl.2006.04.076

> <PMID>


> <PubChem AID>


> <Patent Number>
US10100019

> <Authors>
Kim, P; Kim, HR; Cho, SY; Ha, JD; Jung, HJ; Yun, CS; Hwang, JY; Park, CH; Lee, CO; Ahn, S; Chae, CH

> <Institution>
Korea Research Institute of Chemical Technology

> <Link to Ligand in BindingDB>
http://www.bindingdb.org/bind/chemsearch/marvin/MolStructure.jsp?monomerid=291947

> <Link to Ligand-Target Pair in BindingDB>
http://www.bindingdb.org/jsp/dbsearch/PrimarySearch_ki.jsp?energyterm=kJ/mole&tag=pol&polymerid=5809&target=ALK+tyrosine+kinase+receptor&column=ki&startPg=0&Increment=50&submit=Search

> <Link to Ligand-Target Pair in BindingDB>
http://www.bindingdb.org/jsp/dbsearch/PrimarySearch_ki.jsp?energyterm=kJ/mole&tag=r21&monomerid=291947&enzyme=ALK+tyrosine+kinase+receptor&column=ki&startPg=0&Increment=50&submit=Search

> <Ligand HET ID in PDB>


> <PDB ID(s) for Ligand-Target Complex>


> <PubChem CID>
134449920

> <PubChem SID>
381612246

> <ChEBI ID of Ligand>


> <ChEMBL ID of Ligand>


> <DrugBank ID of Ligand>


> <IUPHAR_GRAC ID of Ligand>


> <KEGG ID of Ligand>


> <ZINC ID of Ligand>


> <Number of Protein Chains in Target (>1 implies a multichain complex)>
1

> <BindingDB Target Chain Sequence>
MGAIGLLWLLPLLLSTAAVGSGMGTGQRAGSPAAGPPLQPREPLSYSRLQRKSLAVDFVVPSLFRVYARDLLLPPSSSELKAGRPEARGSLALDCAPLLRLLGPAPGVSWTAGSPAPAEARTLSRVLKGGSVRKLRRAKQLVLELGEEAILEGCVGPPGEAAVGLLQFNLSELFSWWIRQGEGRLRIRLMPEKKASEVGREGRLSAAIRASQPRLLFQIFGTGHSSLESPTNMPSPSPDYFTWNLTWIMKDSFPFLSHRSRYGLECSFDFPCELEYSPPLHDLRNQSWSWRRIPSEEASQMDLLDGPGAERSKEMPRGSFLLLNTSADSKHTILSPWMRSSSEHCTLAVSVHRHLQPSGRYIAQLLPHNEAAREILLMPTPGKHGWTVLQGRIGRPDNPFRVALEYISSGNRSLSAVDFFALKNCSEGTSPGSKMALQSSFTCWNGTVLQLGQACDFHQDCAQGEDESQMCRKLPVGFYCNFEDGFCGWTQGTLSPHTPQWQVRTLKDARFQDHQDHALLLSTTDVPASESATVTSATFPAPIKSSPCELRMSWLIRGVLRGNVSLVLVENKTGKEQGRMVWHVAAYEGLSLWQWMVLPLLDVSDRFWLQMVAWWGQGSRAIVAFDNISISLDCYLTISGEDKILQNTAPKSRNLFERNPNKELKPGENSPRQTPIFDPTVHWLFTTCGASGPHGPTQAQCNNAYQNSNLSVEVGSEGPLKGIQIWKVPATDTYSISGYGAAGGKGGKNTMMRSHGVSVLGIFNLEKDDMLYILVGQQGEDACPSTNQLIQKVCIGENNVIEEEIRVNRSVHEWAGGGGGGGGATYVFKMKDGVPVPLIIAAGGGGRAYGAKTDTFHPERLENNSSVLGLNGNSGAAGGGGGWNDNTSLLWAGKSLQEGATGGHSCPQAMKKWGWETRGGFGGGGGGCSSGGGGGGYIGGNAASNNDPEMDGEDGVSFISPLGILYTPALKVMEGHGEVNIKHYLNCSHCEVDECHMDPESHKVICFCDHGTVLAEDGVSCIVSPTPEPHLPLSLILSVVTSALVAALVLAFSGIMIVYRRKHQELQAMQMELQSPEYKLSKLRTSTIMTDYNPNYCFAGKTSSISDLKEVPRKNITLIRGLGHGAFGEVYEGQVSGMPNDPSPLQVAVKTLPEVCSEQDELDFLMEALIISKFNHQNIVRCIGVSLQSLPRFILLELMAGGDLKSFLRETRPRPSQPSSLAMLDLLHVARDIACGCQYLEENHFIHRDIAARNCLLTCPGPGRVAKIGDFGMARDIYRASYYRKGGCAMLPVKWMPPEAFMEGIFTSKTDTWSFGVLLWEIFSLGYMPYPSKSNQEVLEFVTSGGRMDPPKNCPGPVYRIMTQCWQHQPEDRPNFAIILERIEYCTQDPDVINTALPIEYGPLVEEEEKVPVRPKDPEGVPPLLVSQQAKREEERSPAAPPPLPTTSSGKAAKKPTAAEISVRVPRGPAVEGGHVNMAFSQSNPPSELHKVHGSRNKPTSLWNPTYGSWFTEKPTKKNNPIAKKEPHDRGNLGLEGSCTVPPNVATGRLPGASLLLEPSSLTANMKEVPLFRLRHFPCGNVNYGYQQQGLPLEAATAPGAGHYEDTILKSKNSMNQPGP

> <PDB ID(s) of Target Chain>
2XB7,2XBA,3AOX,5FTO,5FTQ,6E0R,6EBW,6EDL,6MX8

> <UniProt (SwissProt) Recommended Name of Target Chain>
ALK tyrosine kinase receptor

> <UniProt (SwissProt) Entry Name of Target Chain>
ALK_HUMAN

> <UniProt (SwissProt) Primary ID of Target Chain>
Q9UM73

> <UniProt (SwissProt) Secondary ID(s) of Target Chain>
Q4ZFX9,Q53QQ6,Q53RZ4,Q59FI3,Q9Y4K6

> <UniProt (SwissProt) Alternative ID(s) of Target Chain>


> <UniProt (TrEMBL) Submitted Name of Target Chain>


> <UniProt (TrEMBL) Entry Name of Target Chain>


> <UniProt (TrEMBL) Primary ID of Target Chain>


> <UniProt (TrEMBL) Secondary ID(s) of Target Chain>


> <UniProt (TrEMBL) Alternative ID(s) of Target Chain>


$$$$
00153001.cdx
  Mrv0541 02211919242D          

 41 44  0  0  0  0            999 V2000
   -3.2151    1.6500    0.0000 C   0  0  0  0  0  0  0  0  0  0  0  0
   -3.2151    0.8250    0.0000 C   0  0  0  0  0  0  0  0  0  0  0  0
   -3.9296    0.4125    0.0000 C   0  0  0  0  0  0  0  0  0  0  0  0
   -4.6441    0.8250    0.0000 C   0  0  0  0  0  0  0  0  0  0  0  0
   -4.6441    1.6500    0.0000 C   0  0  0  0  0  0  0  0  0  0  0  0
   -3.9296    2.0625    0.0000 C   0  0  0  0  0  0  0  0  0  0  0  0
   -2.5006    2.0625    0.0000 S   0  0  0  0  0  0  0  0  0  0  0  0
   -2.9131    2.7770    0.0000 O   0  0  0  0  0  0  0  0  0  0  0  0
   -2.0881    1.3480    0.0000 O   0  0  0  0  0  0  0  0  0  0  0  0
   -1.7862    2.4750    0.0000 C   0  0  0  0  0  0  0  0  0  0  0  0
   -1.7862    3.3000    0.0000 C   0  0  0  0  0  0  0  0  0  0  0  0
   -1.0717    2.0625    0.0000 C   0  0  0  0  0  0  0  0  0  0  0  0
   -2.5006    0.4125    0.0000 N   0  0  0  0  0  0  0  0  0  0  0  0
   -2.5006   -0.4125    0.0000 C   0  0  0  0  0  0  0  0  0  0  0  0
   -3.2151   -0.8250    0.0000 C   0  0  0  0  0  0  0  0  0  0  0  0
   -3.2151   -1.6500    0.0000 C   0  0  0  0  0  0  0  0  0  0  0  0
   -2.5006   -2.0625    0.0000 N   0  0  0  0  0  0  0  0  0  0  0  0
   -1.7862   -1.6500    0.0000 C   0  0  0  0  0  0  0  0  0  0  0  0
   -1.7862   -0.8250    0.0000 N   0  0  0  0  0  0  0  0  0  0  0  0
   -3.9296   -0.4125    0.0000 Cl  0  0  0  0  0  0  0  0  0  0  0  0
   -1.0717   -2.0625    0.0000 N   0  0  0  0  0  0  0  0  0  0  0  0
   -0.3572   -1.6500    0.0000 C   0  0  0  0  0  0  0  0  0  0  0  0
   -0.3572   -0.8250    0.0000 C   0  0  0  0  0  0  0  0  0  0  0  0
    0.3572   -2.0625    0.0000 C   0  0  0  0  0  0  0  0  0  0  0  0
    1.0717   -1.6500    0.0000 C   0  0  0  0  0  0  0  0  0  0  0  0
    1.0717   -0.8250    0.0000 C   0  0  0  0  0  0  0  0  0  0  0  0
    0.3572   -0.4125    0.0000 C   0  0  0  0  0  0  0  0  0  0  0  0
    0.3572   -2.8875    0.0000 O   0  0  0  0  0  0  0  0  0  0  0  0
    1.0717   -3.3000    0.0000 C   0  0  0  0  0  0  0  0  0  0  0  0
    0.3572    0.4125    0.0000 C   0  0  0  0  0  0  0  0  0  0  0  0
    1.0717    0.8250    0.0000 C   0  0  0  0  0  0  0  0  0  0  0  0
    1.7862    0.4125    0.0000 N   0  0  0  0  0  0  0  0  0  0  0  0
    2.5006    0.8250    0.0000 C   0  0  0  0  0  0  0  0  0  0  0  0
    2.5006    1.6500    0.0000 N   0  0  0  0  0  0  0  0  0  0  0  0
    3.2151    2.0625    0.0000 C   0  0  0  0  0  0  0  0  0  0  0  0
    3.2151    2.8875    0.0000 C   0  0  0  0  0  0  0  0  0  0  0  0
    3.9296    1.6500    0.0000 C   0  0  0  0  0  0  0  0  0  0  0  0
    4.6441    2.0625    0.0000 C   0  0  0  0  0  0  0  0  0  0  0  0
    4.6441    2.8875    0.0000 C   0  0  0  0  0  0  0  0  0  0  0  0
    3.9296    3.3000    0.0000 C   0  0  0  0  0  0  0  0  0  0  0  0
    3.2151    0.4125    0.0000 O   0  0  0  0  0  0  0  0  0  0  0  0
  1  2  4  0  0  0  0
  2  3  4  0  0  0  0
  3  4  4  0  0  0  0
  4  5  4  0  0  0  0
  5  6  4  0  0  0  0
  6  1  4  0  0  0  0
  1  7  1  0  0  0  0
  7  8  2  0  0  0  0
  7  9  2  0  0  0  0
  7 10  1  0  0  0  0
 10 11  1  0  0  0  0
 10 12  1  0  0  0  0
  2 13  1  0  0  0  0
 13 14  1  0  0  0  0
 14 15  4  0  0  0  0
 15 16  4  0  0  0  0
 16 17  4  0  0  0  0
 17 18  4  0  0  0  0
 18 19  4  0  0  0  0
 19 14  4  0  0  0  0
 15 20  1  0  0  0  0
 18 21  1  0  0  0  0
 21 22  1  0  0  0  0
 22 23  4  0  0  0  0
 22 24  4  0  0  0  0
 24 25  4  0  0  0  0
 25 26  4  0  0  0  0
 26 27  4  0  0  0  0
 27 23  4  0  0  0  0
 24 28  1  0  0  0  0
 28 29  1  0  0  0  0
 27 30  1  0  0  0  0
 30 31  1  0  0  0  0
 31 32  1  0  0  0  0
 32 33  1  0  0  0  0
 33 34  1  0  0  0  0
 34 35  1  0  0  0  0
 35 36  4  0  0  0  0
 35 37  4  0  0  0  0
 37 38  4  0  0  0  0
 38 39  4  0  0  0  0
 39 40  4  0  0  0  0
 40 36  4  0  0  0  0
 33 41  2  0  0  0  0
M  END
> <From>
www.bindingDB.org

> <BindingDB Reactant_set_id>
556926

> <Ligand InChI>
InChI=1S/C29H31ClN6O4S/c1-19(2)41(38,39)26-12-8-7-11-23(26)34-27-22(30)18-32-28(36-27)35-24-17-20(13-14-25(24)40-3)15-16-31-29(37)33-21-9-5-4-6-10-21/h4-14,17-19H,15-16H2,1-3H3,(H2,31,33,37)(H2,32,34,35,36)

> <Ligand InChI Key>
ZLRXZHOLTDATLE-UHFFFAOYSA-N

> <BindingDB MonomerID>
291948

> <BindingDB Ligand Name>
US10100019, Example 18

> <Target Name Assigned by Curator or DataSource>
ALK tyrosine kinase receptor

> <Target Source Organism According to Curator or DataSource>
Homo sapiens

> <Ki (nM)>


> <IC50 (nM)>
 300

> <Kd (nM)>


> <EC50 (nM)>


> <kon (M-1-s-1)>


> <koff (s-1)>


> <pH>


> <Temp C>
25.00

> <Curation/DataSource>
US Patent

> <Article DOI>
10.1016/j.bmcl.2006.04.076

> <PMID>


> <PubChem AID>


> <Patent Number>
US10100019

> <Authors>
Kim, P; Kim, HR; Cho, SY; Ha, JD; Jung, HJ; Yun, CS; Hwang, JY; Park, CH; Lee, CO; Ahn, S; Chae, CH

> <Institution>
Korea Research Institute of Chemical Technology

> <Link to Ligand in BindingDB>
http://www.bindingdb.org/bind/chemsearch/marvin/MolStructure.jsp?monomerid=291948

> <Link to Ligand-Target Pair in BindingDB>
http://www.bindingdb.org/jsp/dbsearch/PrimarySearch_ki.jsp?energyterm=kJ/mole&tag=pol&polymerid=5809&target=ALK+tyrosine+kinase+receptor&column=ki&startPg=0&Increment=50&submit=Search

> <Link to Ligand-Target Pair in BindingDB>
http://www.bindingdb.org/jsp/dbsearch/PrimarySearch_ki.jsp?energyterm=kJ/mole&tag=r21&monomerid=291948&enzyme=ALK+tyrosine+kinase+receptor&column=ki&startPg=0&Increment=50&submit=Search

> <Ligand HET ID in PDB>


> <PDB ID(s) for Ligand-Target Complex>


> <PubChem CID>
122629184

> <PubChem SID>
381612247

> <ChEBI ID of Ligand>


> <ChEMBL ID of Ligand>


> <DrugBank ID of Ligand>


> <IUPHAR_GRAC ID of Ligand>


> <KEGG ID of Ligand>


> <ZINC ID of Ligand>


> <Number of Protein Chains in Target (>1 implies a multichain complex)>
1

> <BindingDB Target Chain Sequence>
MGAIGLLWLLPLLLSTAAVGSGMGTGQRAGSPAAGPPLQPREPLSYSRLQRKSLAVDFVVPSLFRVYARDLLLPPSSSELKAGRPEARGSLALDCAPLLRLLGPAPGVSWTAGSPAPAEARTLSRVLKGGSVRKLRRAKQLVLELGEEAILEGCVGPPGEAAVGLLQFNLSELFSWWIRQGEGRLRIRLMPEKKASEVGREGRLSAAIRASQPRLLFQIFGTGHSSLESPTNMPSPSPDYFTWNLTWIMKDSFPFLSHRSRYGLECSFDFPCELEYSPPLHDLRNQSWSWRRIPSEEASQMDLLDGPGAERSKEMPRGSFLLLNTSADSKHTILSPWMRSSSEHCTLAVSVHRHLQPSGRYIAQLLPHNEAAREILLMPTPGKHGWTVLQGRIGRPDNPFRVALEYISSGNRSLSAVDFFALKNCSEGTSPGSKMALQSSFTCWNGTVLQLGQACDFHQDCAQGEDESQMCRKLPVGFYCNFEDGFCGWTQGTLSPHTPQWQVRTLKDARFQDHQDHALLLSTTDVPASESATVTSATFPAPIKSSPCELRMSWLIRGVLRGNVSLVLVENKTGKEQGRMVWHVAAYEGLSLWQWMVLPLLDVSDRFWLQMVAWWGQGSRAIVAFDNISISLDCYLTISGEDKILQNTAPKSRNLFERNPNKELKPGENSPRQTPIFDPTVHWLFTTCGASGPHGPTQAQCNNAYQNSNLSVEVGSEGPLKGIQIWKVPATDTYSISGYGAAGGKGGKNTMMRSHGVSVLGIFNLEKDDMLYILVGQQGEDACPSTNQLIQKVCIGENNVIEEEIRVNRSVHEWAGGGGGGGGATYVFKMKDGVPVPLIIAAGGGGRAYGAKTDTFHPERLENNSSVLGLNGNSGAAGGGGGWNDNTSLLWAGKSLQEGATGGHSCPQAMKKWGWETRGGFGGGGGGCSSGGGGGGYIGGNAASNNDPEMDGEDGVSFISPLGILYTPALKVMEGHGEVNIKHYLNCSHCEVDECHMDPESHKVICFCDHGTVLAEDGVSCIVSPTPEPHLPLSLILSVVTSALVAALVLAFSGIMIVYRRKHQELQAMQMELQSPEYKLSKLRTSTIMTDYNPNYCFAGKTSSISDLKEVPRKNITLIRGLGHGAFGEVYEGQVSGMPNDPSPLQVAVKTLPEVCSEQDELDFLMEALIISKFNHQNIVRCIGVSLQSLPRFILLELMAGGDLKSFLRETRPRPSQPSSLAMLDLLHVARDIACGCQYLEENHFIHRDIAARNCLLTCPGPGRVAKIGDFGMARDIYRASYYRKGGCAMLPVKWMPPEAFMEGIFTSKTDTWSFGVLLWEIFSLGYMPYPSKSNQEVLEFVTSGGRMDPPKNCPGPVYRIMTQCWQHQPEDRPNFAIILERIEYCTQDPDVINTALPIEYGPLVEEEEKVPVRPKDPEGVPPLLVSQQAKREEERSPAAPPPLPTTSSGKAAKKPTAAEISVRVPRGPAVEGGHVNMAFSQSNPPSELHKVHGSRNKPTSLWNPTYGSWFTEKPTKKNNPIAKKEPHDRGNLGLEGSCTVPPNVATGRLPGASLLLEPSSLTANMKEVPLFRLRHFPCGNVNYGYQQQGLPLEAATAPGAGHYEDTILKSKNSMNQPGP

> <PDB ID(s) of Target Chain>
2XB7,2XBA,3AOX,5FTO,5FTQ,6E0R,6EBW,6EDL,6MX8

> <UniProt (SwissProt) Recommended Name of Target Chain>
ALK tyrosine kinase receptor

> <UniProt (SwissProt) Entry Name of Target Chain>
ALK_HUMAN

> <UniProt (SwissProt) Primary ID of Target Chain>
Q9UM73

> <UniProt (SwissProt) Secondary ID(s) of Target Chain>
Q4ZFX9,Q53QQ6,Q53RZ4,Q59FI3,Q9Y4K6

> <UniProt (SwissProt) Alternative ID(s) of Target Chain>


> <UniProt (TrEMBL) Submitted Name of Target Chain>


> <UniProt (TrEMBL) Entry Name of Target Chain>


> <UniProt (TrEMBL) Primary ID of Target Chain>


> <UniProt (TrEMBL) Secondary ID(s) of Target Chain>


> <UniProt (TrEMBL) Alternative ID(s) of Target Chain>


$$$$
00149001.cdx
  Mrv0541 02211919242D          

 36 38  0  0  0  0            999 V2000
   -2.5006    1.6500    0.0000 C   0  0  0  0  0  0  0  0  0  0  0  0
   -2.5006    0.8250    0.0000 C   0  0  0  0  0  0  0  0  0  0  0  0
   -3.2151    0.4125    0.0000 C   0  0  0  0  0  0  0  0  0  0  0  0
   -3.9296    0.8250    0.0000 C   0  0  0  0  0  0  0  0  0  0  0  0
   -3.9296    1.6500    0.0000 C   0  0  0  0  0  0  0  0  0  0  0  0
   -3.2151    2.0625    0.0000 C   0  0  0  0  0  0  0  0  0  0  0  0
   -1.7862    2.0625    0.0000 S   0  0  0  0  0  0  0  0  0  0  0  0
   -2.1987    2.7770    0.0000 O   0  0  0  0  0  0  0  0  0  0  0  0
   -1.3737    1.3480    0.0000 O   0  0  0  0  0  0  0  0  0  0  0  0
   -1.0717    2.4750    0.0000 C   0  0  0  0  0  0  0  0  0  0  0  0
   -1.0717    3.3000    0.0000 C   0  0  0  0  0  0  0  0  0  0  0  0
   -0.3572    2.0625    0.0000 C   0  0  0  0  0  0  0  0  0  0  0  0
   -1.7862    0.4125    0.0000 N   0  0  0  0  0  0  0  0  0  0  0  0
   -1.7862   -0.4125    0.0000 C   0  0  0  0  0  0  0  0  0  0  0  0
   -2.5006   -0.8250    0.0000 C   0  0  0  0  0  0  0  0  0  0  0  0
   -2.5006   -1.6500    0.0000 C   0  0  0  0  0  0  0  0  0  0  0  0
   -1.7862   -2.0625    0.0000 N   0  0  0  0  0  0  0  0  0  0  0  0
   -1.0717   -1.6500    0.0000 C   0  0  0  0  0  0  0  0  0  0  0  0
   -1.0717   -0.8250    0.0000 N   0  0  0  0  0  0  0  0  0  0  0  0
   -3.2151   -0.4125    0.0000 Cl  0  0  0  0  0  0  0  0  0  0  0  0
   -0.3572   -2.0625    0.0000 N   0  0  0  0  0  0  0  0  0  0  0  0
    0.3572   -1.6500    0.0000 C   0  0  0  0  0  0  0  0  0  0  0  0
    0.3572   -0.8250    0.0000 C   0  0  0  0  0  0  0  0  0  0  0  0
    1.0717   -2.0625    0.0000 C   0  0  0  0  0  0  0  0  0  0  0  0
    1.7862   -1.6500    0.0000 C   0  0  0  0  0  0  0  0  0  0  0  0
    1.7862   -0.8250    0.0000 C   0  0  0  0  0  0  0  0  0  0  0  0
    1.0717   -0.4125    0.0000 C   0  0  0  0  0  0  0  0  0  0  0  0
    1.0717   -2.8875    0.0000 O   0  0  0  0  0  0  0  0  0  0  0  0
    1.7862   -3.3000    0.0000 C   0  0  0  0  0  0  0  0  0  0  0  0
    1.0717    0.4125    0.0000 C   0  0  0  0  0  0  0  0  0  0  0  0
    1.7862    0.8250    0.0000 C   0  0  0  0  0  0  0  0  0  0  0  0
    2.5006    0.4125    0.0000 N   0  0  0  0  0  0  0  0  0  0  0  0
    3.2151    0.8250    0.0000 C   0  0  0  0  0  0  0  0  0  0  0  0
    3.2151    1.6500    0.0000 N   0  0  0  0  0  0  0  0  0  0  0  0
    3.9296    2.0625    0.0000 C   0  0  0  0  0  0  0  0  0  0  0  0
    3.9296    0.4125    0.0000 S   0  0  0  0  0  0  0  0  0  0  0  0
  1  2  4  0  0  0  0
  2  3  4  0  0  0  0
  3  4  4  0  0  0  0
  4  5  4  0  0  0  0
  5  6  4  0  0  0  0
  6  1  4  0  0  0  0
  1  7  1  0  0  0  0
  7  8  2  0  0  0  0
  7  9  2  0  0  0  0
  7 10  1  0  0  0  0
 10 11  1  0  0  0  0
 10 12  1  0  0  0  0
  2 13  1  0  0  0  0
 13 14  1  0  0  0  0
 14 15  4  0  0  0  0
 15 16  4  0  0  0  0
 16 17  4  0  0  0  0
 17 18  4  0  0  0  0
 18 19  4  0  0  0  0
 19 14  4  0  0  0  0
 15 20  1  0  0  0  0
 18 21  1  0  0  0  0
 21 22  1  0  0  0  0
 22 23  4  0  0  0  0
 22 24  4  0  0  0  0
 24 25  4  0  0  0  0
 25 26  4  0  0  0  0
 26 27  4  0  0  0  0
 27 23  4  0  0  0  0
 24 28  1  0  0  0  0
 28 29  1  0  0  0  0
 27 30  1  0  0  0  0
 30 31  1  0  0  0  0
 31 32  1  0  0  0  0
 32 33  1  0  0  0  0
 33 34  1  0  0  0  0
 34 35  1  0  0  0  0
 33 36  2  0  0  0  0
M  END
> <From>
www.bindingDB.org

> <BindingDB Reactant_set_id>
556927

> <Ligand InChI>
InChI=1S/C24H29ClN6O3S2/c1-15(2)36(32,33)21-8-6-5-7-18(21)29-22-17(25)14-28-23(31-22)30-19-13-16(9-10-20(19)34-4)11-12-27-24(35)26-3/h5-10,13-15H,11-12H2,1-4H3,(H2,26,27,35)(H2,28,29,30,31)

> <Ligand InChI Key>
JZMFNCMUNMDDDE-UHFFFAOYSA-N

> <BindingDB MonomerID>
291949

> <BindingDB Ligand Name>
US10100019, Example 19

> <Target Name Assigned by Curator or DataSource>
ALK tyrosine kinase receptor

> <Target Source Organism According to Curator or DataSource>
Homo sapiens

> <Ki (nM)>


> <IC50 (nM)>
 30.0

> <Kd (nM)>


> <EC50 (nM)>


> <kon (M-1-s-1)>


> <koff (s-1)>


> <pH>


> <Temp C>
25.00

> <Curation/DataSource>
US Patent

> <Article DOI>
10.1016/j.bmcl.2006.04.076

> <PMID>


> <PubChem AID>


> <Patent Number>
US10100019

> <Authors>
Kim, P; Kim, HR; Cho, SY; Ha, JD; Jung, HJ; Yun, CS; Hwang, JY; Park, CH; Lee, CO; Ahn, S; Chae, CH

> <Institution>
Korea Research Institute of Chemical Technology

> <Link to Ligand in BindingDB>
http://www.bindingdb.org/bind/chemsearch/marvin/MolStructure.jsp?monomerid=291949

> <Link to Ligand-Target Pair in BindingDB>
http://www.bindingdb.org/jsp/dbsearch/PrimarySearch_ki.jsp?energyterm=kJ/mole&tag=pol&polymerid=5809&target=ALK+tyrosine+kinase+receptor&column=ki&startPg=0&Increment=50&submit=Search

> <Link to Ligand-Target Pair in BindingDB>
http://www.bindingdb.org/jsp/dbsearch/PrimarySearch_ki.jsp?energyterm=kJ/mole&tag=r21&monomerid=291949&enzyme=ALK+tyrosine+kinase+receptor&column=ki&startPg=0&Increment=50&submit=Search

> <Ligand HET ID in PDB>


> <PDB ID(s) for Ligand-Target Complex>


> <PubChem CID>
122629189

> <PubChem SID>
381612248

> <ChEBI ID of Ligand>


> <ChEMBL ID of Ligand>


> <DrugBank ID of Ligand>


> <IUPHAR_GRAC ID of Ligand>


> <KEGG ID of Ligand>


> <ZINC ID of Ligand>


> <Number of Protein Chains in Target (>1 implies a multichain complex)>
1

> <BindingDB Target Chain Sequence>
MGAIGLLWLLPLLLSTAAVGSGMGTGQRAGSPAAGPPLQPREPLSYSRLQRKSLAVDFVVPSLFRVYARDLLLPPSSSELKAGRPEARGSLALDCAPLLRLLGPAPGVSWTAGSPAPAEARTLSRVLKGGSVRKLRRAKQLVLELGEEAILEGCVGPPGEAAVGLLQFNLSELFSWWIRQGEGRLRIRLMPEKKASEVGREGRLSAAIRASQPRLLFQIFGTGHSSLESPTNMPSPSPDYFTWNLTWIMKDSFPFLSHRSRYGLECSFDFPCELEYSPPLHDLRNQSWSWRRIPSEEASQMDLLDGPGAERSKEMPRGSFLLLNTSADSKHTILSPWMRSSSEHCTLAVSVHRHLQPSGRYIAQLLPHNEAAREILLMPTPGKHGWTVLQGRIGRPDNPFRVALEYISSGNRSLSAVDFFALKNCSEGTSPGSKMALQSSFTCWNGTVLQLGQACDFHQDCAQGEDESQMCRKLPVGFYCNFEDGFCGWTQGTLSPHTPQWQVRTLKDARFQDHQDHALLLSTTDVPASESATVTSATFPAPIKSSPCELRMSWLIRGVLRGNVSLVLVENKTGKEQGRMVWHVAAYEGLSLWQWMVLPLLDVSDRFWLQMVAWWGQGSRAIVAFDNISISLDCYLTISGEDKILQNTAPKSRNLFERNPNKELKPGENSPRQTPIFDPTVHWLFTTCGASGPHGPTQAQCNNAYQNSNLSVEVGSEGPLKGIQIWKVPATDTYSISGYGAAGGKGGKNTMMRSHGVSVLGIFNLEKDDMLYILVGQQGEDACPSTNQLIQKVCIGENNVIEEEIRVNRSVHEWAGGGGGGGGATYVFKMKDGVPVPLIIAAGGGGRAYGAKTDTFHPERLENNSSVLGLNGNSGAAGGGGGWNDNTSLLWAGKSLQEGATGGHSCPQAMKKWGWETRGGFGGGGGGCSSGGGGGGYIGGNAASNNDPEMDGEDGVSFISPLGILYTPALKVMEGHGEVNIKHYLNCSHCEVDECHMDPESHKVICFCDHGTVLAEDGVSCIVSPTPEPHLPLSLILSVVTSALVAALVLAFSGIMIVYRRKHQELQAMQMELQSPEYKLSKLRTSTIMTDYNPNYCFAGKTSSISDLKEVPRKNITLIRGLGHGAFGEVYEGQVSGMPNDPSPLQVAVKTLPEVCSEQDELDFLMEALIISKFNHQNIVRCIGVSLQSLPRFILLELMAGGDLKSFLRETRPRPSQPSSLAMLDLLHVARDIACGCQYLEENHFIHRDIAARNCLLTCPGPGRVAKIGDFGMARDIYRASYYRKGGCAMLPVKWMPPEAFMEGIFTSKTDTWSFGVLLWEIFSLGYMPYPSKSNQEVLEFVTSGGRMDPPKNCPGPVYRIMTQCWQHQPEDRPNFAIILERIEYCTQDPDVINTALPIEYGPLVEEEEKVPVRPKDPEGVPPLLVSQQAKREEERSPAAPPPLPTTSSGKAAKKPTAAEISVRVPRGPAVEGGHVNMAFSQSNPPSELHKVHGSRNKPTSLWNPTYGSWFTEKPTKKNNPIAKKEPHDRGNLGLEGSCTVPPNVATGRLPGASLLLEPSSLTANMKEVPLFRLRHFPCGNVNYGYQQQGLPLEAATAPGAGHYEDTILKSKNSMNQPGP

> <PDB ID(s) of Target Chain>
2XB7,2XBA,3AOX,5FTO,5FTQ,6E0R,6EBW,6EDL,6MX8

> <UniProt (SwissProt) Recommended Name of Target Chain>
ALK tyrosine kinase receptor

> <UniProt (SwissProt) Entry Name of Target Chain>
ALK_HUMAN

> <UniProt (SwissProt) Primary ID of Target Chain>
Q9UM73

> <UniProt (SwissProt) Secondary ID(s) of Target Chain>
Q4ZFX9,Q53QQ6,Q53RZ4,Q59FI3,Q9Y4K6

> <UniProt (SwissProt) Alternative ID(s) of Target Chain>


> <UniProt (TrEMBL) Submitted Name of Target Chain>


> <UniProt (TrEMBL) Entry Name of Target Chain>


> <UniProt (TrEMBL) Primary ID of Target Chain>


> <UniProt (TrEMBL) Secondary ID(s) of Target Chain>


> <UniProt (TrEMBL) Alternative ID(s) of Target Chain>


$$$$
00154001.cdx
  Mrv0541 02211919242D          

 42 45  0  0  0  0            999 V2000
   -3.5723    1.6499    0.0000 C   0  0  0  0  0  0  0  0  0  0  0  0
   -3.5723    0.8250    0.0000 C   0  0  0  0  0  0  0  0  0  0  0  0
   -4.2868    0.4124    0.0000 C   0  0  0  0  0  0  0  0  0  0  0  0
   -5.0012    0.8250    0.0000 C   0  0  0  0  0  0  0  0  0  0  0  0
   -5.0012    1.6499    0.0000 C   0  0  0  0  0  0  0  0  0  0  0  0
   -4.2868    2.0625    0.0000 C   0  0  0  0  0  0  0  0  0  0  0  0
   -2.8578    2.0625    0.0000 S   0  0  0  0  0  0  0  0  0  0  0  0
   -3.2703    2.7769    0.0000 O   0  0  0  0  0  0  0  0  0  0  0  0
   -2.4453    1.3480    0.0000 O   0  0  0  0  0  0  0  0  0  0  0  0
   -2.1434    2.4749    0.0000 C   0  0  0  0  0  0  0  0  0  0  0  0
   -2.1434    3.2999    0.0000 C   0  0  0  0  0  0  0  0  0  0  0  0
   -1.4289    2.0625    0.0000 C   0  0  0  0  0  0  0  0  0  0  0  0
   -2.8578    0.4124    0.0000 N   0  0  0  0  0  0  0  0  0  0  0  0
   -2.8578   -0.4124    0.0000 C   0  0  0  0  0  0  0  0  0  0  0  0
   -3.5723   -0.8250    0.0000 C   0  0  0  0  0  0  0  0  0  0  0  0
   -3.5723   -1.6499    0.0000 C   0  0  0  0  0  0  0  0  0  0  0  0
   -2.8578   -2.0625    0.0000 N   0  0  0  0  0  0  0  0  0  0  0  0
   -2.1434   -1.6499    0.0000 C   0  0  0  0  0  0  0  0  0  0  0  0
   -2.1434   -0.8250    0.0000 N   0  0  0  0  0  0  0  0  0  0  0  0
   -4.2868   -0.4124    0.0000 Cl  0  0  0  0  0  0  0  0  0  0  0  0
   -1.4289   -2.0625    0.0000 N   0  0  0  0  0  0  0  0  0  0  0  0
   -0.7145   -1.6499    0.0000 C   0  0  0  0  0  0  0  0  0  0  0  0
   -0.7145   -0.8250    0.0000 C   0  0  0  0  0  0  0  0  0  0  0  0
    0.0000   -2.0625    0.0000 C   0  0  0  0  0  0  0  0  0  0  0  0
    0.7145   -1.6499    0.0000 C   0  0  0  0  0  0  0  0  0  0  0  0
    0.7145   -0.8250    0.0000 C   0  0  0  0  0  0  0  0  0  0  0  0
    0.0000   -0.4124    0.0000 C   0  0  0  0  0  0  0  0  0  0  0  0
    0.0000   -2.8875    0.0000 O   0  0  0  0  0  0  0  0  0  0  0  0
    0.7145   -3.2999    0.0000 C   0  0  0  0  0  0  0  0  0  0  0  0
    0.0000    0.4124    0.0000 C   0  0  0  0  0  0  0  0  0  0  0  0
    0.7145    0.8250    0.0000 C   0  0  0  0  0  0  0  0  0  0  0  0
    1.4289    0.4124    0.0000 N   0  0  0  0  0  0  0  0  0  0  0  0
    2.1434    0.8250    0.0000 C   0  0  0  0  0  0  0  0  0  0  0  0
    2.1434    1.6499    0.0000 N   0  0  0  0  0  0  0  0  0  0  0  0
    2.8578    2.0625    0.0000 C   0  0  0  0  0  0  0  0  0  0  0  0
    2.8578    0.4124    0.0000 S   0  0  0  0  0  0  0  0  0  0  0  0
    3.5723    1.6499    0.0000 C   0  0  0  0  0  0  0  0  0  0  0  0
    3.5723    0.8250    0.0000 C   0  0  0  0  0  0  0  0  0  0  0  0
    4.2868    0.4124    0.0000 C   0  0  0  0  0  0  0  0  0  0  0  0
    5.0012    0.8250    0.0000 C   0  0  0  0  0  0  0  0  0  0  0  0
    5.0012    1.6499    0.0000 C   0  0  0  0  0  0  0  0  0  0  0  0
    4.2868    2.0625    0.0000 C   0  0  0  0  0  0  0  0  0  0  0  0
  1  2  4  0  0  0  0
  2  3  4  0  0  0  0
  3  4  4  0  0  0  0
  4  5  4  0  0  0  0
  5  6  4  0  0  0  0
  6  1  4  0  0  0  0
  1  7  1  0  0  0  0
  7  8  2  0  0  0  0
  7  9  2  0  0  0  0
  7 10  1  0  0  0  0
 10 11  1  0  0  0  0
 10 12  1  0  0  0  0
  2 13  1  0  0  0  0
 13 14  1  0  0  0  0
 14 15  4  0  0  0  0
 15 16  4  0  0  0  0
 16 17  4  0  0  0  0
 17 18  4  0  0  0  0
 18 19  4  0  0  0  0
 19 14  4  0  0  0  0
 15 20  1  0  0  0  0
 18 21  1  0  0  0  0
 21 22  1  0  0  0  0
 22 23  4  0  0  0  0
 22 24  4  0  0  0  0
 24 25  4  0  0  0  0
 25 26  4  0  0  0  0
 26 27  4  0  0  0  0
 27 23  4  0  0  0  0
 24 28  1  0  0  0  0
 28 29  1  0  0  0  0
 27 30  1  0  0  0  0
 30 31  1  0  0  0  0
 31 32  1  0  0  0  0
 32 33  1  0  0  0  0
 33 34  1  0  0  0  0
 34 35  1  0  0  0  0
 33 36  2  0  0  0  0
 35 37  1  0  0  0  0
 37 38  4  0  0  0  0
 38 39  4  0  0  0  0
 39 40  4  0  0  0  0
 40 41  4  0  0  0  0
 41 42  4  0  0  0  0
 42 37  4  0  0  0  0
M  END
> <From>
www.bindingDB.org

> <BindingDB Reactant_set_id>
556928

> <Ligand InChI>
InChI=1S/C30H33ClN6O3S2/c1-20(2)42(38,39)27-12-8-7-11-24(27)35-28-23(31)19-33-29(37-28)36-25-17-21(13-14-26(25)40-3)15-16-32-30(41)34-18-22-9-5-4-6-10-22/h4-14,17,19-20H,15-16,18H2,1-3H3,(H2,32,34,41)(H2,33,35,36,37)

> <Ligand InChI Key>
HAGKVAUHAUZMBY-UHFFFAOYSA-N

> <BindingDB MonomerID>
291950

> <BindingDB Ligand Name>
US10100019, Example 20

> <Target Name Assigned by Curator or DataSource>
ALK tyrosine kinase receptor

> <Target Source Organism According to Curator or DataSource>
Homo sapiens

> <Ki (nM)>


> <IC50 (nM)>
 10.00

> <Kd (nM)>


> <EC50 (nM)>


> <kon (M-1-s-1)>


> <koff (s-1)>


> <pH>


> <Temp C>
25.00

> <Curation/DataSource>
US Patent

> <Article DOI>
10.1016/j.bmcl.2006.04.076

> <PMID>


> <PubChem AID>


> <Patent Number>
US10100019

> <Authors>
Kim, P; Kim, HR; Cho, SY; Ha, JD; Jung, HJ; Yun, CS; Hwang, JY; Park, CH; Lee, CO; Ahn, S; Chae, CH

> <Institution>
Korea Research Institute of Chemical Technology

> <Link to Ligand in BindingDB>
http://www.bindingdb.org/bind/chemsearch/marvin/MolStructure.jsp?monomerid=291950

> <Link to Ligand-Target Pair in BindingDB>
http://www.bindingdb.org/jsp/dbsearch/PrimarySearch_ki.jsp?energyterm=kJ/mole&tag=pol&polymerid=5809&target=ALK+tyrosine+kinase+receptor&column=ki&startPg=0&Increment=50&submit=Search

> <Link to Ligand-Target Pair in BindingDB>
http://www.bindingdb.org/jsp/dbsearch/PrimarySearch_ki.jsp?energyterm=kJ/mole&tag=r21&monomerid=291950&enzyme=ALK+tyrosine+kinase+receptor&column=ki&startPg=0&Increment=50&submit=Search

> <Ligand HET ID in PDB>


> <PDB ID(s) for Ligand-Target Complex>


> <PubChem CID>
134449922

> <PubChem SID>
381612249

> <ChEBI ID of Ligand>


> <ChEMBL ID of Ligand>


> <DrugBank ID of Ligand>


> <IUPHAR_GRAC ID of Ligand>


> <KEGG ID of Ligand>


> <ZINC ID of Ligand>


> <Number of Protein Chains in Target (>1 implies a multichain complex)>
1

> <BindingDB Target Chain Sequence>
MGAIGLLWLLPLLLSTAAVGSGMGTGQRAGSPAAGPPLQPREPLSYSRLQRKSLAVDFVVPSLFRVYARDLLLPPSSSELKAGRPEARGSLALDCAPLLRLLGPAPGVSWTAGSPAPAEARTLSRVLKGGSVRKLRRAKQLVLELGEEAILEGCVGPPGEAAVGLLQFNLSELFSWWIRQGEGRLRIRLMPEKKASEVGREGRLSAAIRASQPRLLFQIFGTGHSSLESPTNMPSPSPDYFTWNLTWIMKDSFPFLSHRSRYGLECSFDFPCELEYSPPLHDLRNQSWSWRRIPSEEASQMDLLDGPGAERSKEMPRGSFLLLNTSADSKHTILSPWMRSSSEHCTLAVSVHRHLQPSGRYIAQLLPHNEAAREILLMPTPGKHGWTVLQGRIGRPDNPFRVALEYISSGNRSLSAVDFFALKNCSEGTSPGSKMALQSSFTCWNGTVLQLGQACDFHQDCAQGEDESQMCRKLPVGFYCNFEDGFCGWTQGTLSPHTPQWQVRTLKDARFQDHQDHALLLSTTDVPASESATVTSATFPAPIKSSPCELRMSWLIRGVLRGNVSLVLVENKTGKEQGRMVWHVAAYEGLSLWQWMVLPLLDVSDRFWLQMVAWWGQGSRAIVAFDNISISLDCYLTISGEDKILQNTAPKSRNLFERNPNKELKPGENSPRQTPIFDPTVHWLFTTCGASGPHGPTQAQCNNAYQNSNLSVEVGSEGPLKGIQIWKVPATDTYSISGYGAAGGKGGKNTMMRSHGVSVLGIFNLEKDDMLYILVGQQGEDACPSTNQLIQKVCIGENNVIEEEIRVNRSVHEWAGGGGGGGGATYVFKMKDGVPVPLIIAAGGGGRAYGAKTDTFHPERLENNSSVLGLNGNSGAAGGGGGWNDNTSLLWAGKSLQEGATGGHSCPQAMKKWGWETRGGFGGGGGGCSSGGGGGGYIGGNAASNNDPEMDGEDGVSFISPLGILYTPALKVMEGHGEVNIKHYLNCSHCEVDECHMDPESHKVICFCDHGTVLAEDGVSCIVSPTPEPHLPLSLILSVVTSALVAALVLAFSGIMIVYRRKHQELQAMQMELQSPEYKLSKLRTSTIMTDYNPNYCFAGKTSSISDLKEVPRKNITLIRGLGHGAFGEVYEGQVSGMPNDPSPLQVAVKTLPEVCSEQDELDFLMEALIISKFNHQNIVRCIGVSLQSLPRFILLELMAGGDLKSFLRETRPRPSQPSSLAMLDLLHVARDIACGCQYLEENHFIHRDIAARNCLLTCPGPGRVAKIGDFGMARDIYRASYYRKGGCAMLPVKWMPPEAFMEGIFTSKTDTWSFGVLLWEIFSLGYMPYPSKSNQEVLEFVTSGGRMDPPKNCPGPVYRIMTQCWQHQPEDRPNFAIILERIEYCTQDPDVINTALPIEYGPLVEEEEKVPVRPKDPEGVPPLLVSQQAKREEERSPAAPPPLPTTSSGKAAKKPTAAEISVRVPRGPAVEGGHVNMAFSQSNPPSELHKVHGSRNKPTSLWNPTYGSWFTEKPTKKNNPIAKKEPHDRGNLGLEGSCTVPPNVATGRLPGASLLLEPSSLTANMKEVPLFRLRHFPCGNVNYGYQQQGLPLEAATAPGAGHYEDTILKSKNSMNQPGP

> <PDB ID(s) of Target Chain>
2XB7,2XBA,3AOX,5FTO,5FTQ,6E0R,6EBW,6EDL,6MX8

> <UniProt (SwissProt) Recommended Name of Target Chain>
ALK tyrosine kinase receptor

> <UniProt (SwissProt) Entry Name of Target Chain>
ALK_HUMAN

> <UniProt (SwissProt) Primary ID of Target Chain>
Q9UM73

> <UniProt (SwissProt) Secondary ID(s) of Target Chain>
Q4ZFX9,Q53QQ6,Q53RZ4,Q59FI3,Q9Y4K6

> <UniProt (SwissProt) Alternative ID(s) of Target Chain>


> <UniProt (TrEMBL) Submitted Name of Target Chain>


> <UniProt (TrEMBL) Entry Name of Target Chain>


> <UniProt (TrEMBL) Primary ID of Target Chain>


> <UniProt (TrEMBL) Secondary ID(s) of Target Chain>


> <UniProt (TrEMBL) Alternative ID(s) of Target Chain>


$$$$
00155001.cdx
  Mrv0541 02211919242D          

 37 40  0  0  0  0            999 V2000
   -2.8322    2.1030    0.0000 C   0  0  0  0  0  0  0  0  0  0  0  0
   -2.8322    1.2780    0.0000 C   0  0  0  0  0  0  0  0  0  0  0  0
   -3.5467    0.8655    0.0000 C   0  0  0  0  0  0  0  0  0  0  0  0
   -4.2612    1.2780    0.0000 C   0  0  0  0  0  0  0  0  0  0  0  0
   -4.2612    2.1030    0.0000 C   0  0  0  0  0  0  0  0  0  0  0  0
   -3.5467    2.5155    0.0000 C   0  0  0  0  0  0  0  0  0  0  0  0
   -2.1178    2.5155    0.0000 S   0  0  0  0  0  0  0  0  0  0  0  0
   -2.5303    3.2299    0.0000 O   0  0  0  0  0  0  0  0  0  0  0  0
   -1.7053    1.8010    0.0000 O   0  0  0  0  0  0  0  0  0  0  0  0
   -1.4033    2.9280    0.0000 C   0  0  0  0  0  0  0  0  0  0  0  0
   -1.4033    3.7530    0.0000 C   0  0  0  0  0  0  0  0  0  0  0  0
   -0.6888    2.5155    0.0000 C   0  0  0  0  0  0  0  0  0  0  0  0
   -2.1178    0.8655    0.0000 N   0  0  0  0  0  0  0  0  0  0  0  0
   -2.1178    0.0405    0.0000 C   0  0  0  0  0  0  0  0  0  0  0  0
   -2.8322   -0.3720    0.0000 C   0  0  0  0  0  0  0  0  0  0  0  0
   -2.8322   -1.1970    0.0000 C   0  0  0  0  0  0  0  0  0  0  0  0
   -2.1178   -1.6095    0.0000 N   0  0  0  0  0  0  0  0  0  0  0  0
   -1.4033   -1.1970    0.0000 C   0  0  0  0  0  0  0  0  0  0  0  0
   -1.4033   -0.3720    0.0000 N   0  0  0  0  0  0  0  0  0  0  0  0
   -3.5467    0.0405    0.0000 Cl  0  0  0  0  0  0  0  0  0  0  0  0
   -0.6888   -1.6095    0.0000 N   0  0  0  0  0  0  0  0  0  0  0  0
    0.1362   -1.6095    0.0000 C   0  0  0  0  0  0  0  0  0  0  0  0
    0.5487   -2.3240    0.0000 C   0  0  0  0  0  0  0  0  0  0  0  0
    1.3737   -2.3240    0.0000 C   0  0  0  0  0  0  0  0  0  0  0  0
    1.7862   -1.6095    0.0000 C   0  0  0  0  0  0  0  0  0  0  0  0
    1.3737   -0.8951    0.0000 C   0  0  0  0  0  0  0  0  0  0  0  0
    0.5487   -0.8951    0.0000 C   0  0  0  0  0  0  0  0  0  0  0  0
    0.1362   -3.0385    0.0000 O   0  0  0  0  0  0  0  0  0  0  0  0
    0.5487   -3.7530    0.0000 C   0  0  0  0  0  0  0  0  0  0  0  0
    1.7862   -0.1806    0.0000 C   0  0  0  0  0  0  0  0  0  0  0  0
    2.6112   -0.1806    0.0000 C   0  0  0  0  0  0  0  0  0  0  0  0
    3.0237    0.5339    0.0000 N   0  0  0  0  0  0  0  0  0  0  0  0
    3.8487    0.5339    0.0000 C   0  0  0  0  0  0  0  0  0  0  0  0
    4.2612    1.2483    0.0000 C   0  0  0  0  0  0  0  0  0  0  0  0
    3.8487    1.9628    0.0000 C   0  0  0  0  0  0  0  0  0  0  0  0
    3.0237    1.9628    0.0000 C   0  0  0  0  0  0  0  0  0  0  0  0
    2.6112    1.2483    0.0000 C   0  0  0  0  0  0  0  0  0  0  0  0
  1  2  4  0  0  0  0
  2  3  4  0  0  0  0
  3  4  4  0  0  0  0
  4  5  4  0  0  0  0
  5  6  4  0  0  0  0
  6  1  4  0  0  0  0
  1  7  1  0  0  0  0
  7  8  2  0  0  0  0
  7  9  2  0  0  0  0
  7 10  1  0  0  0  0
 10 11  1  0  0  0  0
 10 12  1  0  0  0  0
  2 13  1  0  0  0  0
 13 14  1  0  0  0  0
 14 15  4  0  0  0  0
 15 16  4  0  0  0  0
 16 17  4  0  0  0  0
 17 18  4  0  0  0  0
 18 19  4  0  0  0  0
 19 14  4  0  0  0  0
 15 20  1  0  0  0  0
 18 21  1  0  0  0  0
 21 22  1  0  0  0  0
 22 23  4  0  0  0  0
 23 24  4  0  0  0  0
 24 25  4  0  0  0  0
 25 26  4  0  0  0  0
 26 27  4  0  0  0  0
 27 22  4  0  0  0  0
 23 28  1  0  0  0  0
 28 29  1  0  0  0  0
 26 30  1  0  0  0  0
 30 31  1  0  0  0  0
 31 32  1  0  0  0  0
 32 33  1  0  0  0  0
 33 34  1  0  0  0  0
 34 35  1  0  0  0  0
 35 36  1  0  0  0  0
 36 37  1  0  0  0  0
 37 32  1  0  0  0  0
M  END
> <From>
www.bindingDB.org

> <BindingDB Reactant_set_id>
556929

> <Ligand InChI>
InChI=1S/C27H34ClN5O3S/c1-19(2)37(34,35)25-10-6-5-9-22(25)30-26-21(28)18-29-27(32-26)31-23-17-20(11-12-24(23)36-3)13-16-33-14-7-4-8-15-33/h5-6,9-12,17-19H,4,7-8,13-16H2,1-3H3,(H2,29,30,31,32)

> <Ligand InChI Key>
KYTDVMCLOSUQEH-UHFFFAOYSA-N

> <BindingDB MonomerID>
291951

> <BindingDB Ligand Name>
US10100019, Example 21

> <Target Name Assigned by Curator or DataSource>
ALK tyrosine kinase receptor

> <Target Source Organism According to Curator or DataSource>
Homo sapiens

> <Ki (nM)>


> <IC50 (nM)>
 1.000

> <Kd (nM)>


> <EC50 (nM)>


> <kon (M-1-s-1)>


> <koff (s-1)>


> <pH>


> <Temp C>
25.00

> <Curation/DataSource>
US Patent

> <Article DOI>
10.1016/j.bmcl.2006.04.076

> <PMID>


> <PubChem AID>


> <Patent Number>
US10100019

> <Authors>
Kim, P; Kim, HR; Cho, SY; Ha, JD; Jung, HJ; Yun, CS; Hwang, JY; Park, CH; Lee, CO; Ahn, S; Chae, CH

> <Institution>
Korea Research Institute of Chemical Technology

> <Link to Ligand in BindingDB>
http://www.bindingdb.org/bind/chemsearch/marvin/MolStructure.jsp?monomerid=291951

> <Link to Ligand-Target Pair in BindingDB>
http://www.bindingdb.org/jsp/dbsearch/PrimarySearch_ki.jsp?energyterm=kJ/mole&tag=pol&polymerid=5809&target=ALK+tyrosine+kinase+receptor&column=ki&startPg=0&Increment=50&submit=Search

> <Link to Ligand-Target Pair in BindingDB>
http://www.bindingdb.org/jsp/dbsearch/PrimarySearch_ki.jsp?energyterm=kJ/mole&tag=r21&monomerid=291951&enzyme=ALK+tyrosine+kinase+receptor&column=ki&startPg=0&Increment=50&submit=Search

> <Ligand HET ID in PDB>


> <PDB ID(s) for Ligand-Target Complex>


> <PubChem CID>
134449926

> <PubChem SID>
381612250

> <ChEBI ID of Ligand>


> <ChEMBL ID of Ligand>


> <DrugBank ID of Ligand>


> <IUPHAR_GRAC ID of Ligand>


> <KEGG ID of Ligand>


> <ZINC ID of Ligand>


> <Number of Protein Chains in Target (>1 implies a multichain complex)>
1

> <BindingDB Target Chain Sequence>
MGAIGLLWLLPLLLSTAAVGSGMGTGQRAGSPAAGPPLQPREPLSYSRLQRKSLAVDFVVPSLFRVYARDLLLPPSSSELKAGRPEARGSLALDCAPLLRLLGPAPGVSWTAGSPAPAEARTLSRVLKGGSVRKLRRAKQLVLELGEEAILEGCVGPPGEAAVGLLQFNLSELFSWWIRQGEGRLRIRLMPEKKASEVGREGRLSAAIRASQPRLLFQIFGTGHSSLESPTNMPSPSPDYFTWNLTWIMKDSFPFLSHRSRYGLECSFDFPCELEYSPPLHDLRNQSWSWRRIPSEEASQMDLLDGPGAERSKEMPRGSFLLLNTSADSKHTILSPWMRSSSEHCTLAVSVHRHLQPSGRYIAQLLPHNEAAREILLMPTPGKHGWTVLQGRIGRPDNPFRVALEYISSGNRSLSAVDFFALKNCSEGTSPGSKMALQSSFTCWNGTVLQLGQACDFHQDCAQGEDESQMCRKLPVGFYCNFEDGFCGWTQGTLSPHTPQWQVRTLKDARFQDHQDHALLLSTTDVPASESATVTSATFPAPIKSSPCELRMSWLIRGVLRGNVSLVLVENKTGKEQGRMVWHVAAYEGLSLWQWMVLPLLDVSDRFWLQMVAWWGQGSRAIVAFDNISISLDCYLTISGEDKILQNTAPKSRNLFERNPNKELKPGENSPRQTPIFDPTVHWLFTTCGASGPHGPTQAQCNNAYQNSNLSVEVGSEGPLKGIQIWKVPATDTYSISGYGAAGGKGGKNTMMRSHGVSVLGIFNLEKDDMLYILVGQQGEDACPSTNQLIQKVCIGENNVIEEEIRVNRSVHEWAGGGGGGGGATYVFKMKDGVPVPLIIAAGGGGRAYGAKTDTFHPERLENNSSVLGLNGNSGAAGGGGGWNDNTSLLWAGKSLQEGATGGHSCPQAMKKWGWETRGGFGGGGGGCSSGGGGGGYIGGNAASNNDPEMDGEDGVSFISPLGILYTPALKVMEGHGEVNIKHYLNCSHCEVDECHMDPESHKVICFCDHGTVLAEDGVSCIVSPTPEPHLPLSLILSVVTSALVAALVLAFSGIMIVYRRKHQELQAMQMELQSPEYKLSKLRTSTIMTDYNPNYCFAGKTSSISDLKEVPRKNITLIRGLGHGAFGEVYEGQVSGMPNDPSPLQVAVKTLPEVCSEQDELDFLMEALIISKFNHQNIVRCIGVSLQSLPRFILLELMAGGDLKSFLRETRPRPSQPSSLAMLDLLHVARDIACGCQYLEENHFIHRDIAARNCLLTCPGPGRVAKIGDFGMARDIYRASYYRKGGCAMLPVKWMPPEAFMEGIFTSKTDTWSFGVLLWEIFSLGYMPYPSKSNQEVLEFVTSGGRMDPPKNCPGPVYRIMTQCWQHQPEDRPNFAIILERIEYCTQDPDVINTALPIEYGPLVEEEEKVPVRPKDPEGVPPLLVSQQAKREEERSPAAPPPLPTTSSGKAAKKPTAAEISVRVPRGPAVEGGHVNMAFSQSNPPSELHKVHGSRNKPTSLWNPTYGSWFTEKPTKKNNPIAKKEPHDRGNLGLEGSCTVPPNVATGRLPGASLLLEPSSLTANMKEVPLFRLRHFPCGNVNYGYQQQGLPLEAATAPGAGHYEDTILKSKNSMNQPGP

> <PDB ID(s) of Target Chain>
2XB7,2XBA,3AOX,5FTO,5FTQ,6E0R,6EBW,6EDL,6MX8

> <UniProt (SwissProt) Recommended Name of Target Chain>
ALK tyrosine kinase receptor

> <UniProt (SwissProt) Entry Name of Target Chain>
ALK_HUMAN

> <UniProt (SwissProt) Primary ID of Target Chain>
Q9UM73

> <UniProt (SwissProt) Secondary ID(s) of Target Chain>
Q4ZFX9,Q53QQ6,Q53RZ4,Q59FI3,Q9Y4K6

> <UniProt (SwissProt) Alternative ID(s) of Target Chain>


> <UniProt (TrEMBL) Submitted Name of Target Chain>


> <UniProt (TrEMBL) Entry Name of Target Chain>


> <UniProt (TrEMBL) Primary ID of Target Chain>


> <UniProt (TrEMBL) Secondary ID(s) of Target Chain>


> <UniProt (TrEMBL) Alternative ID(s) of Target Chain>


$$$$
00160001.cdx
  Mrv0541 02211919242D          

 37 40  0  0  0  0            999 V2000
   -2.8322    2.1030    0.0000 C   0  0  0  0  0  0  0  0  0  0  0  0
   -2.8322    1.2780    0.0000 C   0  0  0  0  0  0  0  0  0  0  0  0
   -3.5467    0.8655    0.0000 C   0  0  0  0  0  0  0  0  0  0  0  0
   -4.2612    1.2780    0.0000 C   0  0  0  0  0  0  0  0  0  0  0  0
   -4.2612    2.1030    0.0000 C   0  0  0  0  0  0  0  0  0  0  0  0
   -3.5467    2.5155    0.0000 C   0  0  0  0  0  0  0  0  0  0  0  0
   -2.1178    2.5155    0.0000 S   0  0  0  0  0  0  0  0  0  0  0  0
   -2.5303    3.2299    0.0000 O   0  0  0  0  0  0  0  0  0  0  0  0
   -1.7053    1.8010    0.0000 O   0  0  0  0  0  0  0  0  0  0  0  0
   -1.4033    2.9280    0.0000 C   0  0  0  0  0  0  0  0  0  0  0  0
   -1.4033    3.7530    0.0000 C   0  0  0  0  0  0  0  0  0  0  0  0
   -0.6888    2.5155    0.0000 C   0  0  0  0  0  0  0  0  0  0  0  0
   -2.1178    0.8655    0.0000 N   0  0  0  0  0  0  0  0  0  0  0  0
   -2.1178    0.0405    0.0000 C   0  0  0  0  0  0  0  0  0  0  0  0
   -2.8322   -0.3720    0.0000 C   0  0  0  0  0  0  0  0  0  0  0  0
   -2.8322   -1.1970    0.0000 C   0  0  0  0  0  0  0  0  0  0  0  0
   -2.1178   -1.6095    0.0000 N   0  0  0  0  0  0  0  0  0  0  0  0
   -1.4033   -1.1970    0.0000 C   0  0  0  0  0  0  0  0  0  0  0  0
   -1.4033   -0.3720    0.0000 N   0  0  0  0  0  0  0  0  0  0  0  0
   -3.5467    0.0405    0.0000 Cl  0  0  0  0  0  0  0  0  0  0  0  0
   -0.6888   -1.6095    0.0000 N   0  0  0  0  0  0  0  0  0  0  0  0
    0.1362   -1.6095    0.0000 C   0  0  0  0  0  0  0  0  0  0  0  0
    0.5487   -2.3240    0.0000 C   0  0  0  0  0  0  0  0  0  0  0  0
    1.3737   -2.3240    0.0000 C   0  0  0  0  0  0  0  0  0  0  0  0
    1.7862   -1.6095    0.0000 C   0  0  0  0  0  0  0  0  0  0  0  0
    1.3737   -0.8951    0.0000 C   0  0  0  0  0  0  0  0  0  0  0  0
    0.5487   -0.8951    0.0000 C   0  0  0  0  0  0  0  0  0  0  0  0
    0.1362   -3.0385    0.0000 O   0  0  0  0  0  0  0  0  0  0  0  0
    0.5487   -3.7530    0.0000 C   0  0  0  0  0  0  0  0  0  0  0  0
    1.7862   -0.1806    0.0000 C   0  0  0  0  0  0  0  0  0  0  0  0
    2.6112   -0.1806    0.0000 C   0  0  0  0  0  0  0  0  0  0  0  0
    3.0237    0.5339    0.0000 N   0  0  0  0  0  0  0  0  0  0  0  0
    3.8487    0.5339    0.0000 C   0  0  0  0  0  0  0  0  0  0  0  0
    4.2612    1.2483    0.0000 C   0  0  0  0  0  0  0  0  0  0  0  0
    3.8487    1.9628    0.0000 O   0  0  0  0  0  0  0  0  0  0  0  0
    3.0237    1.9628    0.0000 C   0  0  0  0  0  0  0  0  0  0  0  0
    2.6112    1.2483    0.0000 C   0  0  0  0  0  0  0  0  0  0  0  0
  1  2  4  0  0  0  0
  2  3  4  0  0  0  0
  3  4  4  0  0  0  0
  4  5  4  0  0  0  0
  5  6  4  0  0  0  0
  6  1  4  0  0  0  0
  1  7  1  0  0  0  0
  7  8  2  0  0  0  0
  7  9  2  0  0  0  0
  7 10  1  0  0  0  0
 10 11  1  0  0  0  0
 10 12  1  0  0  0  0
  2 13  1  0  0  0  0
 13 14  1  0  0  0  0
 14 15  4  0  0  0  0
 15 16  4  0  0  0  0
 16 17  4  0  0  0  0
 17 18  4  0  0  0  0
 18 19  4  0  0  0  0
 19 14  4  0  0  0  0
 15 20  1  0  0  0  0
 18 21  1  0  0  0  0
 21 22  1  0  0  0  0
 22 23  4  0  0  0  0
 23 24  4  0  0  0  0
 24 25  4  0  0  0  0
 25 26  4  0  0  0  0
 26 27  4  0  0  0  0
 27 22  4  0  0  0  0
 23 28  1  0  0  0  0
 28 29  1  0  0  0  0
 26 30  1  0  0  0  0
 30 31  1  0  0  0  0
 31 32  1  0  0  0  0
 32 33  1  0  0  0  0
 33 34  1  0  0  0  0
 34 35  1  0  0  0  0
 35 36  1  0  0  0  0
 36 37  1  0  0  0  0
 37 32  1  0  0  0  0
M  END
> <From>
www.bindingDB.org

> <BindingDB Reactant_set_id>
556930

> <Ligand InChI>
InChI=1S/C26H32ClN5O4S/c1-18(2)37(33,34)24-7-5-4-6-21(24)29-25-20(27)17-28-26(31-25)30-22-16-19(8-9-23(22)35-3)10-11-32-12-14-36-15-13-32/h4-9,16-18H,10-15H2,1-3H3,(H2,28,29,30,31)

> <Ligand InChI Key>
JQMFATNHUYQNBF-UHFFFAOYSA-N

> <BindingDB MonomerID>
291952

> <BindingDB Ligand Name>
US10100019, Example 22

> <Target Name Assigned by Curator or DataSource>
ALK tyrosine kinase receptor

> <Target Source Organism According to Curator or DataSource>
Homo sapiens

> <Ki (nM)>


> <IC50 (nM)>
 10.00

> <Kd (nM)>


> <EC50 (nM)>


> <kon (M-1-s-1)>


> <koff (s-1)>


> <pH>


> <Temp C>
25.00

> <Curation/DataSource>
US Patent

> <Article DOI>
10.1016/j.bmcl.2006.04.076

> <PMID>


> <PubChem AID>


> <Patent Number>
US10100019

> <Authors>
Kim, P; Kim, HR; Cho, SY; Ha, JD; Jung, HJ; Yun, CS; Hwang, JY; Park, CH; Lee, CO; Ahn, S; Chae, CH

> <Institution>
Korea Research Institute of Chemical Technology

> <Link to Ligand in BindingDB>
http://www.bindingdb.org/bind/chemsearch/marvin/MolStructure.jsp?monomerid=291952

> <Link to Ligand-Target Pair in BindingDB>
http://www.bindingdb.org/jsp/dbsearch/PrimarySearch_ki.jsp?energyterm=kJ/mole&tag=pol&polymerid=5809&target=ALK+tyrosine+kinase+receptor&column=ki&startPg=0&Increment=50&submit=Search

> <Link to Ligand-Target Pair in BindingDB>
http://www.bindingdb.org/jsp/dbsearch/PrimarySearch_ki.jsp?energyterm=kJ/mole&tag=r21&monomerid=291952&enzyme=ALK+tyrosine+kinase+receptor&column=ki&startPg=0&Increment=50&submit=Search

> <Ligand HET ID in PDB>


> <PDB ID(s) for Ligand-Target Complex>


> <PubChem CID>
134449995

> <PubChem SID>
381612251

> <ChEBI ID of Ligand>


> <ChEMBL ID of Ligand>


> <DrugBank ID of Ligand>


> <IUPHAR_GRAC ID of Ligand>


> <KEGG ID of Ligand>


> <ZINC ID of Ligand>


> <Number of Protein Chains in Target (>1 implies a multichain complex)>
1

> <BindingDB Target Chain Sequence>
MGAIGLLWLLPLLLSTAAVGSGMGTGQRAGSPAAGPPLQPREPLSYSRLQRKSLAVDFVVPSLFRVYARDLLLPPSSSELKAGRPEARGSLALDCAPLLRLLGPAPGVSWTAGSPAPAEARTLSRVLKGGSVRKLRRAKQLVLELGEEAILEGCVGPPGEAAVGLLQFNLSELFSWWIRQGEGRLRIRLMPEKKASEVGREGRLSAAIRASQPRLLFQIFGTGHSSLESPTNMPSPSPDYFTWNLTWIMKDSFPFLSHRSRYGLECSFDFPCELEYSPPLHDLRNQSWSWRRIPSEEASQMDLLDGPGAERSKEMPRGSFLLLNTSADSKHTILSPWMRSSSEHCTLAVSVHRHLQPSGRYIAQLLPHNEAAREILLMPTPGKHGWTVLQGRIGRPDNPFRVALEYISSGNRSLSAVDFFALKNCSEGTSPGSKMALQSSFTCWNGTVLQLGQACDFHQDCAQGEDESQMCRKLPVGFYCNFEDGFCGWTQGTLSPHTPQWQVRTLKDARFQDHQDHALLLSTTDVPASESATVTSATFPAPIKSSPCELRMSWLIRGVLRGNVSLVLVENKTGKEQGRMVWHVAAYEGLSLWQWMVLPLLDVSDRFWLQMVAWWGQGSRAIVAFDNISISLDCYLTISGEDKILQNTAPKSRNLFERNPNKELKPGENSPRQTPIFDPTVHWLFTTCGASGPHGPTQAQCNNAYQNSNLSVEVGSEGPLKGIQIWKVPATDTYSISGYGAAGGKGGKNTMMRSHGVSVLGIFNLEKDDMLYILVGQQGEDACPSTNQLIQKVCIGENNVIEEEIRVNRSVHEWAGGGGGGGGATYVFKMKDGVPVPLIIAAGGGGRAYGAKTDTFHPERLENNSSVLGLNGNSGAAGGGGGWNDNTSLLWAGKSLQEGATGGHSCPQAMKKWGWETRGGFGGGGGGCSSGGGGGGYIGGNAASNNDPEMDGEDGVSFISPLGILYTPALKVMEGHGEVNIKHYLNCSHCEVDECHMDPESHKVICFCDHGTVLAEDGVSCIVSPTPEPHLPLSLILSVVTSALVAALVLAFSGIMIVYRRKHQELQAMQMELQSPEYKLSKLRTSTIMTDYNPNYCFAGKTSSISDLKEVPRKNITLIRGLGHGAFGEVYEGQVSGMPNDPSPLQVAVKTLPEVCSEQDELDFLMEALIISKFNHQNIVRCIGVSLQSLPRFILLELMAGGDLKSFLRETRPRPSQPSSLAMLDLLHVARDIACGCQYLEENHFIHRDIAARNCLLTCPGPGRVAKIGDFGMARDIYRASYYRKGGCAMLPVKWMPPEAFMEGIFTSKTDTWSFGVLLWEIFSLGYMPYPSKSNQEVLEFVTSGGRMDPPKNCPGPVYRIMTQCWQHQPEDRPNFAIILERIEYCTQDPDVINTALPIEYGPLVEEEEKVPVRPKDPEGVPPLLVSQQAKREEERSPAAPPPLPTTSSGKAAKKPTAAEISVRVPRGPAVEGGHVNMAFSQSNPPSELHKVHGSRNKPTSLWNPTYGSWFTEKPTKKNNPIAKKEPHDRGNLGLEGSCTVPPNVATGRLPGASLLLEPSSLTANMKEVPLFRLRHFPCGNVNYGYQQQGLPLEAATAPGAGHYEDTILKSKNSMNQPGP

> <PDB ID(s) of Target Chain>
2XB7,2XBA,3AOX,5FTO,5FTQ,6E0R,6EBW,6EDL,6MX8

> <UniProt (SwissProt) Recommended Name of Target Chain>
ALK tyrosine kinase receptor

> <UniProt (SwissProt) Entry Name of Target Chain>
ALK_HUMAN

> <UniProt (SwissProt) Primary ID of Target Chain>
Q9UM73

> <UniProt (SwissProt) Secondary ID(s) of Target Chain>
Q4ZFX9,Q53QQ6,Q53RZ4,Q59FI3,Q9Y4K6

> <UniProt (SwissProt) Alternative ID(s) of Target Chain>


> <UniProt (TrEMBL) Submitted Name of Target Chain>


> <UniProt (TrEMBL) Entry Name of Target Chain>


> <UniProt (TrEMBL) Primary ID of Target Chain>


> <UniProt (TrEMBL) Secondary ID(s) of Target Chain>


> <UniProt (TrEMBL) Alternative ID(s) of Target Chain>


$$$$
00156001.cdx
  Mrv0541 02211919242D          

 37 39  0  0  0  0            999 V2000
   -2.8579    1.6500    0.0000 C   0  0  0  0  0  0  0  0  0  0  0  0
   -2.8579    0.8250    0.0000 C   0  0  0  0  0  0  0  0  0  0  0  0
   -3.5724    0.4125    0.0000 C   0  0  0  0  0  0  0  0  0  0  0  0
   -4.2868    0.8250    0.0000 C   0  0  0  0  0  0  0  0  0  0  0  0
   -4.2868    1.6500    0.0000 C   0  0  0  0  0  0  0  0  0  0  0  0
   -3.5724    2.0625    0.0000 C   0  0  0  0  0  0  0  0  0  0  0  0
   -2.1434    2.0625    0.0000 S   0  0  0  0  0  0  0  0  0  0  0  0
   -2.5559    2.7770    0.0000 O   0  0  0  0  0  0  0  0  0  0  0  0
   -1.7309    1.3480    0.0000 O   0  0  0  0  0  0  0  0  0  0  0  0
   -1.4289    2.4750    0.0000 C   0  0  0  0  0  0  0  0  0  0  0  0
   -1.4289    3.3000    0.0000 C   0  0  0  0  0  0  0  0  0  0  0  0
   -0.7145    2.0625    0.0000 C   0  0  0  0  0  0  0  0  0  0  0  0
   -2.1434    0.4125    0.0000 N   0  0  0  0  0  0  0  0  0  0  0  0
   -2.1434   -0.4125    0.0000 C   0  0  0  0  0  0  0  0  0  0  0  0
   -2.8579   -0.8250    0.0000 C   0  0  0  0  0  0  0  0  0  0  0  0
   -2.8579   -1.6500    0.0000 C   0  0  0  0  0  0  0  0  0  0  0  0
   -2.1434   -2.0625    0.0000 N   0  0  0  0  0  0  0  0  0  0  0  0
   -1.4289   -1.6500    0.0000 C   0  0  0  0  0  0  0  0  0  0  0  0
   -1.4289   -0.8250    0.0000 N   0  0  0  0  0  0  0  0  0  0  0  0
   -3.5724   -0.4125    0.0000 Cl  0  0  0  0  0  0  0  0  0  0  0  0
   -0.7145   -2.0625    0.0000 N   0  0  0  0  0  0  0  0  0  0  0  0
    0.0000   -1.6500    0.0000 C   0  0  0  0  0  0  0  0  0  0  0  0
    0.0000   -0.8250    0.0000 C   0  0  0  0  0  0  0  0  0  0  0  0
    0.7145   -2.0625    0.0000 C   0  0  0  0  0  0  0  0  0  0  0  0
    1.4289   -1.6500    0.0000 C   0  0  0  0  0  0  0  0  0  0  0  0
    1.4289   -0.8250    0.0000 C   0  0  0  0  0  0  0  0  0  0  0  0
    0.7145   -0.4125    0.0000 C   0  0  0  0  0  0  0  0  0  0  0  0
    0.7145   -2.8875    0.0000 O   0  0  0  0  0  0  0  0  0  0  0  0
    1.4289   -3.3000    0.0000 C   0  0  0  0  0  0  0  0  0  0  0  0
    0.7145    0.4125    0.0000 C   0  0  0  0  0  0  0  0  0  0  0  0
    1.4289    0.8250    0.0000 C   0  0  0  0  0  0  0  0  0  0  0  0
    2.1434    0.4125    0.0000 N   0  0  0  0  0  0  0  0  0  0  0  0
    2.8579    0.8250    0.0000 C   0  0  0  0  0  0  0  0  0  0  0  0
    2.8579    1.6500    0.0000 N   0  0  0  0  0  0  0  0  0  0  0  0
    3.5724    2.0625    0.0000 C   0  0  0  0  0  0  0  0  0  0  0  0
    3.5724    0.4125    0.0000 S   0  0  0  0  0  0  0  0  0  0  0  0
    4.2868    1.6500    0.0000 C   0  0  0  0  0  0  0  0  0  0  0  0
  1  2  4  0  0  0  0
  2  3  4  0  0  0  0
  3  4  4  0  0  0  0
  4  5  4  0  0  0  0
  5  6  4  0  0  0  0
  6  1  4  0  0  0  0
  1  7  1  0  0  0  0
  7  8  2  0  0  0  0
  7  9  2  0  0  0  0
  7 10  1  0  0  0  0
 10 11  1  0  0  0  0
 10 12  1  0  0  0  0
  2 13  1  0  0  0  0
 13 14  1  0  0  0  0
 14 15  4  0  0  0  0
 15 16  4  0  0  0  0
 16 17  4  0  0  0  0
 17 18  4  0  0  0  0
 18 19  4  0  0  0  0
 19 14  4  0  0  0  0
 15 20  1  0  0  0  0
 18 21  1  0  0  0  0
 21 22  1  0  0  0  0
 22 23  4  0  0  0  0
 22 24  4  0  0  0  0
 24 25  4  0  0  0  0
 25 26  4  0  0  0  0
 26 27  4  0  0  0  0
 27 23  4  0  0  0  0
 24 28  1  0  0  0  0
 28 29  1  0  0  0  0
 27 30  1  0  0  0  0
 30 31  1  0  0  0  0
 31 32  1  0  0  0  0
 32 33  1  0  0  0  0
 33 34  1  0  0  0  0
 34 35  1  0  0  0  0
 33 36  2  0  0  0  0
 35 37  1  0  0  0  0
M  END
> <From>
www.bindingDB.org

> <BindingDB Reactant_set_id>
556931

> <Ligand InChI>
InChI=1S/C25H31ClN6O3S2/c1-5-27-25(36)28-13-12-17-10-11-21(35-4)20(14-17)31-24-29-15-18(26)23(32-24)30-19-8-6-7-9-22(19)37(33,34)16(2)3/h6-11,14-16H,5,12-13H2,1-4H3,(H2,27,28,36)(H2,29,30,31,32)

> <Ligand InChI Key>
PFZIQVWSNDVNQV-UHFFFAOYSA-N

> <BindingDB MonomerID>
291953

> <BindingDB Ligand Name>
US10100019, Example 23

> <Target Name Assigned by Curator or DataSource>
ALK tyrosine kinase receptor

> <Target Source Organism According to Curator or DataSource>
Homo sapiens

> <Ki (nM)>


> <IC50 (nM)>
 10.00

> <Kd (nM)>


> <EC50 (nM)>


> <kon (M-1-s-1)>


> <koff (s-1)>


> <pH>


> <Temp C>
25.00

> <Curation/DataSource>
US Patent

> <Article DOI>
10.1016/j.bmcl.2006.04.076

> <PMID>


> <PubChem AID>


> <Patent Number>
US10100019

> <Authors>
Kim, P; Kim, HR; Cho, SY; Ha, JD; Jung, HJ; Yun, CS; Hwang, JY; Park, CH; Lee, CO; Ahn, S; Chae, CH

> <Institution>
Korea Research Institute of Chemical Technology

> <Link to Ligand in BindingDB>
http://www.bindingdb.org/bind/chemsearch/marvin/MolStructure.jsp?monomerid=291953

> <Link to Ligand-Target Pair in BindingDB>
http://www.bindingdb.org/jsp/dbsearch/PrimarySearch_ki.jsp?energyterm=kJ/mole&tag=pol&polymerid=5809&target=ALK+tyrosine+kinase+receptor&column=ki&startPg=0&Increment=50&submit=Search

> <Link to Ligand-Target Pair in BindingDB>
http://www.bindingdb.org/jsp/dbsearch/PrimarySearch_ki.jsp?energyterm=kJ/mole&tag=r21&monomerid=291953&enzyme=ALK+tyrosine+kinase+receptor&column=ki&startPg=0&Increment=50&submit=Search

> <Ligand HET ID in PDB>


> <PDB ID(s) for Ligand-Target Complex>


> <PubChem CID>
134449928

> <PubChem SID>
381612252

> <ChEBI ID of Ligand>


> <ChEMBL ID of Ligand>


> <DrugBank ID of Ligand>


> <IUPHAR_GRAC ID of Ligand>


> <KEGG ID of Ligand>


> <ZINC ID of Ligand>


> <Number of Protein Chains in Target (>1 implies a multichain complex)>
1

> <BindingDB Target Chain Sequence>
MGAIGLLWLLPLLLSTAAVGSGMGTGQRAGSPAAGPPLQPREPLSYSRLQRKSLAVDFVVPSLFRVYARDLLLPPSSSELKAGRPEARGSLALDCAPLLRLLGPAPGVSWTAGSPAPAEARTLSRVLKGGSVRKLRRAKQLVLELGEEAILEGCVGPPGEAAVGLLQFNLSELFSWWIRQGEGRLRIRLMPEKKASEVGREGRLSAAIRASQPRLLFQIFGTGHSSLESPTNMPSPSPDYFTWNLTWIMKDSFPFLSHRSRYGLECSFDFPCELEYSPPLHDLRNQSWSWRRIPSEEASQMDLLDGPGAERSKEMPRGSFLLLNTSADSKHTILSPWMRSSSEHCTLAVSVHRHLQPSGRYIAQLLPHNEAAREILLMPTPGKHGWTVLQGRIGRPDNPFRVALEYISSGNRSLSAVDFFALKNCSEGTSPGSKMALQSSFTCWNGTVLQLGQACDFHQDCAQGEDESQMCRKLPVGFYCNFEDGFCGWTQGTLSPHTPQWQVRTLKDARFQDHQDHALLLSTTDVPASESATVTSATFPAPIKSSPCELRMSWLIRGVLRGNVSLVLVENKTGKEQGRMVWHVAAYEGLSLWQWMVLPLLDVSDRFWLQMVAWWGQGSRAIVAFDNISISLDCYLTISGEDKILQNTAPKSRNLFERNPNKELKPGENSPRQTPIFDPTVHWLFTTCGASGPHGPTQAQCNNAYQNSNLSVEVGSEGPLKGIQIWKVPATDTYSISGYGAAGGKGGKNTMMRSHGVSVLGIFNLEKDDMLYILVGQQGEDACPSTNQLIQKVCIGENNVIEEEIRVNRSVHEWAGGGGGGGGATYVFKMKDGVPVPLIIAAGGGGRAYGAKTDTFHPERLENNSSVLGLNGNSGAAGGGGGWNDNTSLLWAGKSLQEGATGGHSCPQAMKKWGWETRGGFGGGGGGCSSGGGGGGYIGGNAASNNDPEMDGEDGVSFISPLGILYTPALKVMEGHGEVNIKHYLNCSHCEVDECHMDPESHKVICFCDHGTVLAEDGVSCIVSPTPEPHLPLSLILSVVTSALVAALVLAFSGIMIVYRRKHQELQAMQMELQSPEYKLSKLRTSTIMTDYNPNYCFAGKTSSISDLKEVPRKNITLIRGLGHGAFGEVYEGQVSGMPNDPSPLQVAVKTLPEVCSEQDELDFLMEALIISKFNHQNIVRCIGVSLQSLPRFILLELMAGGDLKSFLRETRPRPSQPSSLAMLDLLHVARDIACGCQYLEENHFIHRDIAARNCLLTCPGPGRVAKIGDFGMARDIYRASYYRKGGCAMLPVKWMPPEAFMEGIFTSKTDTWSFGVLLWEIFSLGYMPYPSKSNQEVLEFVTSGGRMDPPKNCPGPVYRIMTQCWQHQPEDRPNFAIILERIEYCTQDPDVINTALPIEYGPLVEEEEKVPVRPKDPEGVPPLLVSQQAKREEERSPAAPPPLPTTSSGKAAKKPTAAEISVRVPRGPAVEGGHVNMAFSQSNPPSELHKVHGSRNKPTSLWNPTYGSWFTEKPTKKNNPIAKKEPHDRGNLGLEGSCTVPPNVATGRLPGASLLLEPSSLTANMKEVPLFRLRHFPCGNVNYGYQQQGLPLEAATAPGAGHYEDTILKSKNSMNQPGP

> <PDB ID(s) of Target Chain>
2XB7,2XBA,3AOX,5FTO,5FTQ,6E0R,6EBW,6EDL,6MX8

> <UniProt (SwissProt) Recommended Name of Target Chain>
ALK tyrosine kinase receptor

> <UniProt (SwissProt) Entry Name of Target Chain>
ALK_HUMAN

> <UniProt (SwissProt) Primary ID of Target Chain>
Q9UM73

> <UniProt (SwissProt) Secondary ID(s) of Target Chain>
Q4ZFX9,Q53QQ6,Q53RZ4,Q59FI3,Q9Y4K6

> <UniProt (SwissProt) Alternative ID(s) of Target Chain>


> <UniProt (TrEMBL) Submitted Name of Target Chain>


> <UniProt (TrEMBL) Entry Name of Target Chain>


> <UniProt (TrEMBL) Primary ID of Target Chain>


> <UniProt (TrEMBL) Secondary ID(s) of Target Chain>


> <UniProt (TrEMBL) Alternative ID(s) of Target Chain>


$$$$
00161001.cdx
  Mrv0541 02211919242D          

 38 40  0  0  0  0            999 V2000
   -1.0341   -2.8115    0.0000 C   0  0  0  0  0  0  0  0  0  0  0  0
   -1.7485   -2.3990    0.0000 C   0  0  0  0  0  0  0  0  0  0  0  0
   -2.4630   -2.8115    0.0000 C   0  0  0  0  0  0  0  0  0  0  0  0
   -2.4630   -3.6365    0.0000 C   0  0  0  0  0  0  0  0  0  0  0  0
   -1.7485   -4.0490    0.0000 C   0  0  0  0  0  0  0  0  0  0  0  0
   -1.0341   -3.6365    0.0000 C   0  0  0  0  0  0  0  0  0  0  0  0
   -0.3196   -2.3990    0.0000 S   0  0  0  0  0  0  0  0  0  0  0  0
    0.0929   -3.1135    0.0000 O   0  0  0  0  0  0  0  0  0  0  0  0
   -0.7321   -1.6845    0.0000 O   0  0  0  0  0  0  0  0  0  0  0  0
    0.3949   -1.9865    0.0000 C   0  0  0  0  0  0  0  0  0  0  0  0
    1.1093   -2.3990    0.0000 C   0  0  0  0  0  0  0  0  0  0  0  0
    0.3949   -1.1615    0.0000 C   0  0  0  0  0  0  0  0  0  0  0  0
   -1.7485   -1.5740    0.0000 N   0  0  0  0  0  0  0  0  0  0  0  0
   -2.4630   -1.1615    0.0000 C   0  0  0  0  0  0  0  0  0  0  0  0
   -3.1775   -1.5740    0.0000 C   0  0  0  0  0  0  0  0  0  0  0  0
   -3.8920   -1.1615    0.0000 C   0  0  0  0  0  0  0  0  0  0  0  0
   -3.8920   -0.3365    0.0000 N   0  0  0  0  0  0  0  0  0  0  0  0
   -3.1775    0.0760    0.0000 C   0  0  0  0  0  0  0  0  0  0  0  0
   -2.4630   -0.3365    0.0000 N   0  0  0  0  0  0  0  0  0  0  0  0
   -3.1775   -2.3990    0.0000 Cl  0  0  0  0  0  0  0  0  0  0  0  0
   -3.1775    0.9010    0.0000 N   0  0  0  0  0  0  0  0  0  0  0  0
   -2.4630    1.3135    0.0000 C   0  0  0  0  0  0  0  0  0  0  0  0
   -2.4630    2.1385    0.0000 C   0  0  0  0  0  0  0  0  0  0  0  0
   -1.7485    0.9010    0.0000 C   0  0  0  0  0  0  0  0  0  0  0  0
   -1.0341    1.3135    0.0000 C   0  0  0  0  0  0  0  0  0  0  0  0
   -1.0341    2.1385    0.0000 C   0  0  0  0  0  0  0  0  0  0  0  0
   -1.7485    2.5510    0.0000 C   0  0  0  0  0  0  0  0  0  0  0  0
   -1.7485    0.0760    0.0000 O   0  0  0  0  0  0  0  0  0  0  0  0
   -1.0341   -0.3365    0.0000 C   0  0  0  0  0  0  0  0  0  0  0  0
   -1.7485    3.3760    0.0000 C   0  0  0  0  0  0  0  0  0  0  0  0
   -1.0341    3.7885    0.0000 C   0  0  0  0  0  0  0  0  0  0  0  0
   -0.3196    3.3760    0.0000 N   0  0  0  0  0  0  0  0  0  0  0  0
    0.3949    3.7885    0.0000 C   0  0  0  0  0  0  0  0  0  0  0  0
    1.1093    3.3760    0.0000 C   0  0  0  0  0  0  0  0  0  0  0  0
    1.8238    3.7885    0.0000 C   0  0  0  0  0  0  0  0  0  0  0  0
    1.8238    4.6135    0.0000 O   0  0  0  0  0  0  0  0  0  0  0  0
    2.5383    3.3760    0.0000 O   0  0  0  0  0  0  0  0  0  0  0  0
    3.2528    3.7885    0.0000 C   0  0  0  0  0  0  0  0  0  0  0  0
  1  2  4  0  0  0  0
  2  3  4  0  0  0  0
  3  4  4  0  0  0  0
  4  5  4  0  0  0  0
  5  6  4  0  0  0  0
  6  1  4  0  0  0  0
  1  7  1  0  0  0  0
  7  8  2  0  0  0  0
  7  9  2  0  0  0  0
  7 10  1  0  0  0  0
 10 11  1  0  0  0  0
 10 12  1  0  0  0  0
  2 13  1  0  0  0  0
 13 14  1  0  0  0  0
 14 15  4  0  0  0  0
 15 16  4  0  0  0  0
 16 17  4  0  0  0  0
 17 18  4  0  0  0  0
 18 19  4  0  0  0  0
 19 14  4  0  0  0  0
 15 20  1  0  0  0  0
 18 21  1  0  0  0  0
 21 22  1  0  0  0  0
 22 23  4  0  0  0  0
 22 24  4  0  0  0  0
 24 25  4  0  0  0  0
 25 26  4  0  0  0  0
 26 27  4  0  0  0  0
 27 23  4  0  0  0  0
 24 28  1  0  0  0  0
 28 29  1  0  0  0  0
 27 30  1  0  0  0  0
 30 31  1  0  0  0  0
 31 32  1  0  0  0  0
 32 33  1  0  0  0  0
 33 34  1  0  0  0  0
 34 35  1  0  0  0  0
 35 36  2  0  0  0  0
 35 37  1  0  0  0  0
 37 38  1  0  0  0  0
M  END
> <From>
www.bindingDB.org

> <BindingDB Reactant_set_id>
556932

> <Ligand InChI>
InChI=1S/C26H32ClN5O5S/c1-17(2)38(34,35)23-8-6-5-7-20(23)30-25-19(27)16-29-26(32-25)31-21-15-18(9-10-22(21)36-3)11-13-28-14-12-24(33)37-4/h5-10,15-17,28H,11-14H2,1-4H3,(H2,29,30,31,32)

> <Ligand InChI Key>
TWFGYFUYNRUBKC-UHFFFAOYSA-N

> <BindingDB MonomerID>
291954

> <BindingDB Ligand Name>
US10100019, Example 24

> <Target Name Assigned by Curator or DataSource>
ALK tyrosine kinase receptor

> <Target Source Organism According to Curator or DataSource>
Homo sapiens

> <Ki (nM)>


> <IC50 (nM)>
 0.880

> <Kd (nM)>


> <EC50 (nM)>


> <kon (M-1-s-1)>


> <koff (s-1)>


> <pH>


> <Temp C>
25.00

> <Curation/DataSource>
US Patent

> <Article DOI>
10.1016/j.bmcl.2006.04.076

> <PMID>


> <PubChem AID>


> <Patent Number>
US10100019

> <Authors>
Kim, P; Kim, HR; Cho, SY; Ha, JD; Jung, HJ; Yun, CS; Hwang, JY; Park, CH; Lee, CO; Ahn, S; Chae, CH

> <Institution>
Korea Research Institute of Chemical Technology

> <Link to Ligand in BindingDB>
http://www.bindingdb.org/bind/chemsearch/marvin/MolStructure.jsp?monomerid=291954

> <Link to Ligand-Target Pair in BindingDB>
http://www.bindingdb.org/jsp/dbsearch/PrimarySearch_ki.jsp?energyterm=kJ/mole&tag=pol&polymerid=5809&target=ALK+tyrosine+kinase+receptor&column=ki&startPg=0&Increment=50&submit=Search

> <Link to Ligand-Target Pair in BindingDB>
http://www.bindingdb.org/jsp/dbsearch/PrimarySearch_ki.jsp?energyterm=kJ/mole&tag=r21&monomerid=291954&enzyme=ALK+tyrosine+kinase+receptor&column=ki&startPg=0&Increment=50&submit=Search

> <Ligand HET ID in PDB>


> <PDB ID(s) for Ligand-Target Complex>


> <PubChem CID>
122629191

> <PubChem SID>
381612253

> <ChEBI ID of Ligand>


> <ChEMBL ID of Ligand>


> <DrugBank ID of Ligand>


> <IUPHAR_GRAC ID of Ligand>


> <KEGG ID of Ligand>


> <ZINC ID of Ligand>


> <Number of Protein Chains in Target (>1 implies a multichain complex)>
1

> <BindingDB Target Chain Sequence>
MGAIGLLWLLPLLLSTAAVGSGMGTGQRAGSPAAGPPLQPREPLSYSRLQRKSLAVDFVVPSLFRVYARDLLLPPSSSELKAGRPEARGSLALDCAPLLRLLGPAPGVSWTAGSPAPAEARTLSRVLKGGSVRKLRRAKQLVLELGEEAILEGCVGPPGEAAVGLLQFNLSELFSWWIRQGEGRLRIRLMPEKKASEVGREGRLSAAIRASQPRLLFQIFGTGHSSLESPTNMPSPSPDYFTWNLTWIMKDSFPFLSHRSRYGLECSFDFPCELEYSPPLHDLRNQSWSWRRIPSEEASQMDLLDGPGAERSKEMPRGSFLLLNTSADSKHTILSPWMRSSSEHCTLAVSVHRHLQPSGRYIAQLLPHNEAAREILLMPTPGKHGWTVLQGRIGRPDNPFRVALEYISSGNRSLSAVDFFALKNCSEGTSPGSKMALQSSFTCWNGTVLQLGQACDFHQDCAQGEDESQMCRKLPVGFYCNFEDGFCGWTQGTLSPHTPQWQVRTLKDARFQDHQDHALLLSTTDVPASESATVTSATFPAPIKSSPCELRMSWLIRGVLRGNVSLVLVENKTGKEQGRMVWHVAAYEGLSLWQWMVLPLLDVSDRFWLQMVAWWGQGSRAIVAFDNISISLDCYLTISGEDKILQNTAPKSRNLFERNPNKELKPGENSPRQTPIFDPTVHWLFTTCGASGPHGPTQAQCNNAYQNSNLSVEVGSEGPLKGIQIWKVPATDTYSISGYGAAGGKGGKNTMMRSHGVSVLGIFNLEKDDMLYILVGQQGEDACPSTNQLIQKVCIGENNVIEEEIRVNRSVHEWAGGGGGGGGATYVFKMKDGVPVPLIIAAGGGGRAYGAKTDTFHPERLENNSSVLGLNGNSGAAGGGGGWNDNTSLLWAGKSLQEGATGGHSCPQAMKKWGWETRGGFGGGGGGCSSGGGGGGYIGGNAASNNDPEMDGEDGVSFISPLGILYTPALKVMEGHGEVNIKHYLNCSHCEVDECHMDPESHKVICFCDHGTVLAEDGVSCIVSPTPEPHLPLSLILSVVTSALVAALVLAFSGIMIVYRRKHQELQAMQMELQSPEYKLSKLRTSTIMTDYNPNYCFAGKTSSISDLKEVPRKNITLIRGLGHGAFGEVYEGQVSGMPNDPSPLQVAVKTLPEVCSEQDELDFLMEALIISKFNHQNIVRCIGVSLQSLPRFILLELMAGGDLKSFLRETRPRPSQPSSLAMLDLLHVARDIACGCQYLEENHFIHRDIAARNCLLTCPGPGRVAKIGDFGMARDIYRASYYRKGGCAMLPVKWMPPEAFMEGIFTSKTDTWSFGVLLWEIFSLGYMPYPSKSNQEVLEFVTSGGRMDPPKNCPGPVYRIMTQCWQHQPEDRPNFAIILERIEYCTQDPDVINTALPIEYGPLVEEEEKVPVRPKDPEGVPPLLVSQQAKREEERSPAAPPPLPTTSSGKAAKKPTAAEISVRVPRGPAVEGGHVNMAFSQSNPPSELHKVHGSRNKPTSLWNPTYGSWFTEKPTKKNNPIAKKEPHDRGNLGLEGSCTVPPNVATGRLPGASLLLEPSSLTANMKEVPLFRLRHFPCGNVNYGYQQQGLPLEAATAPGAGHYEDTILKSKNSMNQPGP

> <PDB ID(s) of Target Chain>
2XB7,2XBA,3AOX,5FTO,5FTQ,6E0R,6EBW,6EDL,6MX8

> <UniProt (SwissProt) Recommended Name of Target Chain>
ALK tyrosine kinase receptor

> <UniProt (SwissProt) Entry Name of Target Chain>
ALK_HUMAN

> <UniProt (SwissProt) Primary ID of Target Chain>
Q9UM73

> <UniProt (SwissProt) Secondary ID(s) of Target Chain>
Q4ZFX9,Q53QQ6,Q53RZ4,Q59FI3,Q9Y4K6

> <UniProt (SwissProt) Alternative ID(s) of Target Chain>


> <UniProt (TrEMBL) Submitted Name of Target Chain>


> <UniProt (TrEMBL) Entry Name of Target Chain>


> <UniProt (TrEMBL) Primary ID of Target Chain>


> <UniProt (TrEMBL) Secondary ID(s) of Target Chain>


> <UniProt (TrEMBL) Alternative ID(s) of Target Chain>


$$$$
00157001.cdx
  Mrv0541 02211919242D          

 38 41  0  0  0  0            999 V2000
   -2.8579    1.6500    0.0000 C   0  0  0  0  0  0  0  0  0  0  0  0
   -2.8579    0.8250    0.0000 C   0  0  0  0  0  0  0  0  0  0  0  0
   -3.5724    0.4125    0.0000 C   0  0  0  0  0  0  0  0  0  0  0  0
   -4.2868    0.8250    0.0000 C   0  0  0  0  0  0  0  0  0  0  0  0
   -4.2868    1.6500    0.0000 C   0  0  0  0  0  0  0  0  0  0  0  0
   -3.5724    2.0625    0.0000 C   0  0  0  0  0  0  0  0  0  0  0  0
   -2.1434    2.0625    0.0000 S   0  0  0  0  0  0  0  0  0  0  0  0
   -2.5559    2.7770    0.0000 O   0  0  0  0  0  0  0  0  0  0  0  0
   -1.7309    1.3480    0.0000 O   0  0  0  0  0  0  0  0  0  0  0  0
   -1.4289    2.4750    0.0000 C   0  0  0  0  0  0  0  0  0  0  0  0
   -1.4289    3.3000    0.0000 C   0  0  0  0  0  0  0  0  0  0  0  0
   -0.7145    2.0625    0.0000 C   0  0  0  0  0  0  0  0  0  0  0  0
   -2.1434    0.4125    0.0000 N   0  0  0  0  0  0  0  0  0  0  0  0
   -2.1434   -0.4125    0.0000 C   0  0  0  0  0  0  0  0  0  0  0  0
   -2.8579   -0.8250    0.0000 C   0  0  0  0  0  0  0  0  0  0  0  0
   -2.8579   -1.6500    0.0000 C   0  0  0  0  0  0  0  0  0  0  0  0
   -2.1434   -2.0625    0.0000 N   0  0  0  0  0  0  0  0  0  0  0  0
   -1.4289   -1.6500    0.0000 C   0  0  0  0  0  0  0  0  0  0  0  0
   -1.4289   -0.8250    0.0000 N   0  0  0  0  0  0  0  0  0  0  0  0
   -3.5724   -0.4125    0.0000 Cl  0  0  0  0  0  0  0  0  0  0  0  0
   -0.7145   -2.0625    0.0000 N   0  0  0  0  0  0  0  0  0  0  0  0
    0.0000   -1.6500    0.0000 C   0  0  0  0  0  0  0  0  0  0  0  0
    0.0000   -0.8250    0.0000 C   0  0  0  0  0  0  0  0  0  0  0  0
    0.7145   -2.0625    0.0000 C   0  0  0  0  0  0  0  0  0  0  0  0
    1.4289   -1.6500    0.0000 C   0  0  0  0  0  0  0  0  0  0  0  0
    1.4289   -0.8250    0.0000 C   0  0  0  0  0  0  0  0  0  0  0  0
    0.7145   -0.4125    0.0000 C   0  0  0  0  0  0  0  0  0  0  0  0
    0.7145   -2.8875    0.0000 O   0  0  0  0  0  0  0  0  0  0  0  0
    1.4289   -3.3000    0.0000 C   0  0  0  0  0  0  0  0  0  0  0  0
    0.7145    0.4125    0.0000 C   0  0  0  0  0  0  0  0  0  0  0  0
    1.4289    0.8250    0.0000 C   0  0  0  0  0  0  0  0  0  0  0  0
    2.1434    0.4125    0.0000 N   0  0  0  0  0  0  0  0  0  0  0  0
    2.8579    0.8250    0.0000 C   0  0  0  0  0  0  0  0  0  0  0  0
    2.8579    1.6500    0.0000 N   0  0  0  0  0  0  0  0  0  0  0  0
    3.5724    2.0625    0.0000 C   0  0  0  0  0  0  0  0  0  0  0  0
    3.5724    0.4125    0.0000 N   0  0  0  0  0  0  0  0  0  0  0  0
    4.2868    1.6500    0.0000 C   0  0  0  0  0  0  0  0  0  0  0  0
    4.2868    0.8250    0.0000 C   0  0  0  0  0  0  0  0  0  0  0  0
  1  2  4  0  0  0  0
  2  3  4  0  0  0  0
  3  4  4  0  0  0  0
  4  5  4  0  0  0  0
  5  6  4  0  0  0  0
  6  1  4  0  0  0  0
  1  7  1  0  0  0  0
  7  8  2  0  0  0  0
  7  9  2  0  0  0  0
  7 10  1  0  0  0  0
 10 11  1  0  0  0  0
 10 12  1  0  0  0  0
  2 13  1  0  0  0  0
 13 14  1  0  0  0  0
 14 15  4  0  0  0  0
 15 16  4  0  0  0  0
 16 17  4  0  0  0  0
 17 18  4  0  0  0  0
 18 19  4  0  0  0  0
 19 14  4  0  0  0  0
 15 20  1  0  0  0  0
 18 21  1  0  0  0  0
 21 22  1  0  0  0  0
 22 23  4  0  0  0  0
 22 24  4  0  0  0  0
 24 25  4  0  0  0  0
 25 26  4  0  0  0  0
 26 27  4  0  0  0  0
 27 23  4  0  0  0  0
 24 28  1  0  0  0  0
 28 29  1  0  0  0  0
 27 30  1  0  0  0  0
 30 31  1  0  0  0  0
 31 32  1  0  0  0  0
 32 33  1  0  0  0  0
 33 34  4  0  0  0  0
 34 35  4  0  0  0  0
 33 36  4  0  0  0  0
 35 37  4  0  0  0  0
 37 38  4  0  0  0  0
 38 36  4  0  0  0  0
M  END
> <From>
www.bindingDB.org

> <BindingDB Reactant_set_id>
556933

> <Ligand InChI>
InChI=1S/C26H28ClN7O3S/c1-17(2)38(35,36)23-8-5-4-7-20(23)32-24-19(27)16-31-26(34-24)33-21-15-18(9-10-22(21)37-3)11-14-30-25-28-12-6-13-29-25/h4-10,12-13,15-17H,11,14H2,1-3H3,(H,28,29,30)(H2,31,32,33,34)

> <Ligand InChI Key>
QDCQSLLXPYSDTE-UHFFFAOYSA-N

> <BindingDB MonomerID>
291955

> <BindingDB Ligand Name>
US10100019, Example 25

> <Target Name Assigned by Curator or DataSource>
ALK tyrosine kinase receptor

> <Target Source Organism According to Curator or DataSource>
Homo sapiens

> <Ki (nM)>


> <IC50 (nM)>
 40.0

> <Kd (nM)>


> <EC50 (nM)>


> <kon (M-1-s-1)>


> <koff (s-1)>


> <pH>


> <Temp C>
25.00

> <Curation/DataSource>
US Patent

> <Article DOI>
10.1016/j.bmcl.2006.04.076

> <PMID>


> <PubChem AID>


> <Patent Number>
US10100019

> <Authors>
Kim, P; Kim, HR; Cho, SY; Ha, JD; Jung, HJ; Yun, CS; Hwang, JY; Park, CH; Lee, CO; Ahn, S; Chae, CH

> <Institution>
Korea Research Institute of Chemical Technology

> <Link to Ligand in BindingDB>
http://www.bindingdb.org/bind/chemsearch/marvin/MolStructure.jsp?monomerid=291955

> <Link to Ligand-Target Pair in BindingDB>
http://www.bindingdb.org/jsp/dbsearch/PrimarySearch_ki.jsp?energyterm=kJ/mole&tag=pol&polymerid=5809&target=ALK+tyrosine+kinase+receptor&column=ki&startPg=0&Increment=50&submit=Search

> <Link to Ligand-Target Pair in BindingDB>
http://www.bindingdb.org/jsp/dbsearch/PrimarySearch_ki.jsp?energyterm=kJ/mole&tag=r21&monomerid=291955&enzyme=ALK+tyrosine+kinase+receptor&column=ki&startPg=0&Increment=50&submit=Search

> <Ligand HET ID in PDB>


> <PDB ID(s) for Ligand-Target Complex>


> <PubChem CID>
134449931

> <PubChem SID>
381612254

> <ChEBI ID of Ligand>


> <ChEMBL ID of Ligand>


> <DrugBank ID of Ligand>


> <IUPHAR_GRAC ID of Ligand>


> <KEGG ID of Ligand>


> <ZINC ID of Ligand>


> <Number of Protein Chains in Target (>1 implies a multichain complex)>
1

> <BindingDB Target Chain Sequence>
MGAIGLLWLLPLLLSTAAVGSGMGTGQRAGSPAAGPPLQPREPLSYSRLQRKSLAVDFVVPSLFRVYARDLLLPPSSSELKAGRPEARGSLALDCAPLLRLLGPAPGVSWTAGSPAPAEARTLSRVLKGGSVRKLRRAKQLVLELGEEAILEGCVGPPGEAAVGLLQFNLSELFSWWIRQGEGRLRIRLMPEKKASEVGREGRLSAAIRASQPRLLFQIFGTGHSSLESPTNMPSPSPDYFTWNLTWIMKDSFPFLSHRSRYGLECSFDFPCELEYSPPLHDLRNQSWSWRRIPSEEASQMDLLDGPGAERSKEMPRGSFLLLNTSADSKHTILSPWMRSSSEHCTLAVSVHRHLQPSGRYIAQLLPHNEAAREILLMPTPGKHGWTVLQGRIGRPDNPFRVALEYISSGNRSLSAVDFFALKNCSEGTSPGSKMALQSSFTCWNGTVLQLGQACDFHQDCAQGEDESQMCRKLPVGFYCNFEDGFCGWTQGTLSPHTPQWQVRTLKDARFQDHQDHALLLSTTDVPASESATVTSATFPAPIKSSPCELRMSWLIRGVLRGNVSLVLVENKTGKEQGRMVWHVAAYEGLSLWQWMVLPLLDVSDRFWLQMVAWWGQGSRAIVAFDNISISLDCYLTISGEDKILQNTAPKSRNLFERNPNKELKPGENSPRQTPIFDPTVHWLFTTCGASGPHGPTQAQCNNAYQNSNLSVEVGSEGPLKGIQIWKVPATDTYSISGYGAAGGKGGKNTMMRSHGVSVLGIFNLEKDDMLYILVGQQGEDACPSTNQLIQKVCIGENNVIEEEIRVNRSVHEWAGGGGGGGGATYVFKMKDGVPVPLIIAAGGGGRAYGAKTDTFHPERLENNSSVLGLNGNSGAAGGGGGWNDNTSLLWAGKSLQEGATGGHSCPQAMKKWGWETRGGFGGGGGGCSSGGGGGGYIGGNAASNNDPEMDGEDGVSFISPLGILYTPALKVMEGHGEVNIKHYLNCSHCEVDECHMDPESHKVICFCDHGTVLAEDGVSCIVSPTPEPHLPLSLILSVVTSALVAALVLAFSGIMIVYRRKHQELQAMQMELQSPEYKLSKLRTSTIMTDYNPNYCFAGKTSSISDLKEVPRKNITLIRGLGHGAFGEVYEGQVSGMPNDPSPLQVAVKTLPEVCSEQDELDFLMEALIISKFNHQNIVRCIGVSLQSLPRFILLELMAGGDLKSFLRETRPRPSQPSSLAMLDLLHVARDIACGCQYLEENHFIHRDIAARNCLLTCPGPGRVAKIGDFGMARDIYRASYYRKGGCAMLPVKWMPPEAFMEGIFTSKTDTWSFGVLLWEIFSLGYMPYPSKSNQEVLEFVTSGGRMDPPKNCPGPVYRIMTQCWQHQPEDRPNFAIILERIEYCTQDPDVINTALPIEYGPLVEEEEKVPVRPKDPEGVPPLLVSQQAKREEERSPAAPPPLPTTSSGKAAKKPTAAEISVRVPRGPAVEGGHVNMAFSQSNPPSELHKVHGSRNKPTSLWNPTYGSWFTEKPTKKNNPIAKKEPHDRGNLGLEGSCTVPPNVATGRLPGASLLLEPSSLTANMKEVPLFRLRHFPCGNVNYGYQQQGLPLEAATAPGAGHYEDTILKSKNSMNQPGP

> <PDB ID(s) of Target Chain>
2XB7,2XBA,3AOX,5FTO,5FTQ,6E0R,6EBW,6EDL,6MX8

> <UniProt (SwissProt) Recommended Name of Target Chain>
ALK tyrosine kinase receptor

> <UniProt (SwissProt) Entry Name of Target Chain>
ALK_HUMAN

> <UniProt (SwissProt) Primary ID of Target Chain>
Q9UM73

> <UniProt (SwissProt) Secondary ID(s) of Target Chain>
Q4ZFX9,Q53QQ6,Q53RZ4,Q59FI3,Q9Y4K6

> <UniProt (SwissProt) Alternative ID(s) of Target Chain>


> <UniProt (TrEMBL) Submitted Name of Target Chain>


> <UniProt (TrEMBL) Entry Name of Target Chain>


> <UniProt (TrEMBL) Primary ID of Target Chain>


> <UniProt (TrEMBL) Secondary ID(s) of Target Chain>


> <UniProt (TrEMBL) Alternative ID(s) of Target Chain>


$$$$
00162001.cdx
  Mrv0541 02211919242D          

 37 39  0  0  0  0            999 V2000
   -3.0703   -1.9064    0.0000 C   0  0  0  0  0  0  0  0  0  0  0  0
   -3.0703   -1.0814    0.0000 C   0  0  0  0  0  0  0  0  0  0  0  0
   -3.7848   -0.6689    0.0000 C   0  0  0  0  0  0  0  0  0  0  0  0
   -4.4992   -1.0814    0.0000 C   0  0  0  0  0  0  0  0  0  0  0  0
   -4.4992   -1.9064    0.0000 C   0  0  0  0  0  0  0  0  0  0  0  0
   -3.7848   -2.3189    0.0000 C   0  0  0  0  0  0  0  0  0  0  0  0
   -2.3558   -2.3189    0.0000 S   0  0  0  0  0  0  0  0  0  0  0  0
   -2.7683   -3.0334    0.0000 O   0  0  0  0  0  0  0  0  0  0  0  0
   -1.9433   -1.6044    0.0000 O   0  0  0  0  0  0  0  0  0  0  0  0
   -1.6414   -2.7314    0.0000 C   0  0  0  0  0  0  0  0  0  0  0  0
   -1.6414   -3.5564    0.0000 C   0  0  0  0  0  0  0  0  0  0  0  0
   -0.9269   -2.3189    0.0000 C   0  0  0  0  0  0  0  0  0  0  0  0
   -2.3558   -0.6689    0.0000 N   0  0  0  0  0  0  0  0  0  0  0  0
   -2.3558    0.1561    0.0000 C   0  0  0  0  0  0  0  0  0  0  0  0
   -3.0703    0.5686    0.0000 C   0  0  0  0  0  0  0  0  0  0  0  0
   -3.0703    1.3936    0.0000 C   0  0  0  0  0  0  0  0  0  0  0  0
   -2.3558    1.8061    0.0000 N   0  0  0  0  0  0  0  0  0  0  0  0
   -1.6414    1.3936    0.0000 C   0  0  0  0  0  0  0  0  0  0  0  0
   -1.6414    0.5686    0.0000 N   0  0  0  0  0  0  0  0  0  0  0  0
   -3.7848    0.1561    0.0000 Cl  0  0  0  0  0  0  0  0  0  0  0  0
   -0.9269    1.8061    0.0000 N   0  0  0  0  0  0  0  0  0  0  0  0
   -0.2124    1.3936    0.0000 C   0  0  0  0  0  0  0  0  0  0  0  0
    0.5021    1.8061    0.0000 C   0  0  0  0  0  0  0  0  0  0  0  0
   -0.2124    0.5686    0.0000 C   0  0  0  0  0  0  0  0  0  0  0  0
    0.5021    0.1561    0.0000 C   0  0  0  0  0  0  0  0  0  0  0  0
    1.2165    0.5686    0.0000 C   0  0  0  0  0  0  0  0  0  0  0  0
    1.2165    1.3936    0.0000 C   0  0  0  0  0  0  0  0  0  0  0  0
   -0.9269    0.1561    0.0000 O   0  0  0  0  0  0  0  0  0  0  0  0
   -0.9269   -0.6689    0.0000 C   0  0  0  0  0  0  0  0  0  0  0  0
    1.9310    1.8061    0.0000 C   0  0  0  0  0  0  0  0  0  0  0  0
    2.6455    1.3936    0.0000 C   0  0  0  0  0  0  0  0  0  0  0  0
    3.3599    1.8061    0.0000 N   0  0  0  0  0  0  0  0  0  0  0  0
    4.0744    1.3936    0.0000 C   0  0  0  0  0  0  0  0  0  0  0  0
    4.7889    1.8061    0.0000 C   0  0  0  0  0  0  0  0  0  0  0  0
    4.7889    2.6311    0.0000 O   0  0  0  0  0  0  0  0  0  0  0  0
    5.5034    1.3936    0.0000 O   0  0  0  0  0  0  0  0  0  0  0  0
    6.2178    1.8061    0.0000 C   0  0  0  0  0  0  0  0  0  0  0  0
  1  2  4  0  0  0  0
  2  3  4  0  0  0  0
  3  4  4  0  0  0  0
  4  5  4  0  0  0  0
  5  6  4  0  0  0  0
  6  1  4  0  0  0  0
  1  7  1  0  0  0  0
  7  8  2  0  0  0  0
  7  9  2  0  0  0  0
  7 10  1  0  0  0  0
 10 11  1  0  0  0  0
 10 12  1  0  0  0  0
  2 13  1  0  0  0  0
 13 14  1  0  0  0  0
 14 15  4  0  0  0  0
 15 16  4  0  0  0  0
 16 17  4  0  0  0  0
 17 18  4  0  0  0  0
 18 19  4  0  0  0  0
 19 14  4  0  0  0  0
 15 20  1  0  0  0  0
 18 21  1  0  0  0  0
 21 22  1  0  0  0  0
 22 23  4  0  0  0  0
 22 24  4  0  0  0  0
 24 25  4  0  0  0  0
 25 26  4  0  0  0  0
 26 27  4  0  0  0  0
 27 23  4  0  0  0  0
 24 28  1  0  0  0  0
 28 29  1  0  0  0  0
 27 30  1  0  0  0  0
 30 31  1  0  0  0  0
 31 32  1  0  0  0  0
 32 33  1  0  0  0  0
 33 34  1  0  0  0  0
 34 35  2  0  0  0  0
 34 36  1  0  0  0  0
 36 37  1  0  0  0  0
M  END
> <From>
www.bindingDB.org

> <BindingDB Reactant_set_id>
556934

> <Ligand InChI>
InChI=1S/C25H30ClN5O5S/c1-16(2)37(33,34)22-8-6-5-7-19(22)29-24-18(26)14-28-25(31-24)30-20-13-17(9-10-21(20)35-3)11-12-27-15-23(32)36-4/h5-10,13-14,16,27H,11-12,15H2,1-4H3,(H2,28,29,30,31)

> <Ligand InChI Key>
GANNLFTUWFAJIC-UHFFFAOYSA-N

> <BindingDB MonomerID>
291956

> <BindingDB Ligand Name>
US10100019, Example 26

> <Target Name Assigned by Curator or DataSource>
ALK tyrosine kinase receptor

> <Target Source Organism According to Curator or DataSource>
Homo sapiens

> <Ki (nM)>


> <IC50 (nM)>
 3.50

> <Kd (nM)>


> <EC50 (nM)>


> <kon (M-1-s-1)>


> <koff (s-1)>


> <pH>


> <Temp C>
25.00

> <Curation/DataSource>
US Patent

> <Article DOI>
10.1016/j.bmcl.2006.04.076

> <PMID>


> <PubChem AID>


> <Patent Number>
US10100019

> <Authors>
Kim, P; Kim, HR; Cho, SY; Ha, JD; Jung, HJ; Yun, CS; Hwang, JY; Park, CH; Lee, CO; Ahn, S; Chae, CH

> <Institution>
Korea Research Institute of Chemical Technology

> <Link to Ligand in BindingDB>
http://www.bindingdb.org/bind/chemsearch/marvin/MolStructure.jsp?monomerid=291956

> <Link to Ligand-Target Pair in BindingDB>
http://www.bindingdb.org/jsp/dbsearch/PrimarySearch_ki.jsp?energyterm=kJ/mole&tag=pol&polymerid=5809&target=ALK+tyrosine+kinase+receptor&column=ki&startPg=0&Increment=50&submit=Search

> <Link to Ligand-Target Pair in BindingDB>
http://www.bindingdb.org/jsp/dbsearch/PrimarySearch_ki.jsp?energyterm=kJ/mole&tag=r21&monomerid=291956&enzyme=ALK+tyrosine+kinase+receptor&column=ki&startPg=0&Increment=50&submit=Search

> <Ligand HET ID in PDB>


> <PDB ID(s) for Ligand-Target Complex>


> <PubChem CID>
122629196

> <PubChem SID>
381612255

> <ChEBI ID of Ligand>


> <ChEMBL ID of Ligand>


> <DrugBank ID of Ligand>


> <IUPHAR_GRAC ID of Ligand>


> <KEGG ID of Ligand>


> <ZINC ID of Ligand>


> <Number of Protein Chains in Target (>1 implies a multichain complex)>
1

> <BindingDB Target Chain Sequence>
MGAIGLLWLLPLLLSTAAVGSGMGTGQRAGSPAAGPPLQPREPLSYSRLQRKSLAVDFVVPSLFRVYARDLLLPPSSSELKAGRPEARGSLALDCAPLLRLLGPAPGVSWTAGSPAPAEARTLSRVLKGGSVRKLRRAKQLVLELGEEAILEGCVGPPGEAAVGLLQFNLSELFSWWIRQGEGRLRIRLMPEKKASEVGREGRLSAAIRASQPRLLFQIFGTGHSSLESPTNMPSPSPDYFTWNLTWIMKDSFPFLSHRSRYGLECSFDFPCELEYSPPLHDLRNQSWSWRRIPSEEASQMDLLDGPGAERSKEMPRGSFLLLNTSADSKHTILSPWMRSSSEHCTLAVSVHRHLQPSGRYIAQLLPHNEAAREILLMPTPGKHGWTVLQGRIGRPDNPFRVALEYISSGNRSLSAVDFFALKNCSEGTSPGSKMALQSSFTCWNGTVLQLGQACDFHQDCAQGEDESQMCRKLPVGFYCNFEDGFCGWTQGTLSPHTPQWQVRTLKDARFQDHQDHALLLSTTDVPASESATVTSATFPAPIKSSPCELRMSWLIRGVLRGNVSLVLVENKTGKEQGRMVWHVAAYEGLSLWQWMVLPLLDVSDRFWLQMVAWWGQGSRAIVAFDNISISLDCYLTISGEDKILQNTAPKSRNLFERNPNKELKPGENSPRQTPIFDPTVHWLFTTCGASGPHGPTQAQCNNAYQNSNLSVEVGSEGPLKGIQIWKVPATDTYSISGYGAAGGKGGKNTMMRSHGVSVLGIFNLEKDDMLYILVGQQGEDACPSTNQLIQKVCIGENNVIEEEIRVNRSVHEWAGGGGGGGGATYVFKMKDGVPVPLIIAAGGGGRAYGAKTDTFHPERLENNSSVLGLNGNSGAAGGGGGWNDNTSLLWAGKSLQEGATGGHSCPQAMKKWGWETRGGFGGGGGGCSSGGGGGGYIGGNAASNNDPEMDGEDGVSFISPLGILYTPALKVMEGHGEVNIKHYLNCSHCEVDECHMDPESHKVICFCDHGTVLAEDGVSCIVSPTPEPHLPLSLILSVVTSALVAALVLAFSGIMIVYRRKHQELQAMQMELQSPEYKLSKLRTSTIMTDYNPNYCFAGKTSSISDLKEVPRKNITLIRGLGHGAFGEVYEGQVSGMPNDPSPLQVAVKTLPEVCSEQDELDFLMEALIISKFNHQNIVRCIGVSLQSLPRFILLELMAGGDLKSFLRETRPRPSQPSSLAMLDLLHVARDIACGCQYLEENHFIHRDIAARNCLLTCPGPGRVAKIGDFGMARDIYRASYYRKGGCAMLPVKWMPPEAFMEGIFTSKTDTWSFGVLLWEIFSLGYMPYPSKSNQEVLEFVTSGGRMDPPKNCPGPVYRIMTQCWQHQPEDRPNFAIILERIEYCTQDPDVINTALPIEYGPLVEEEEKVPVRPKDPEGVPPLLVSQQAKREEERSPAAPPPLPTTSSGKAAKKPTAAEISVRVPRGPAVEGGHVNMAFSQSNPPSELHKVHGSRNKPTSLWNPTYGSWFTEKPTKKNNPIAKKEPHDRGNLGLEGSCTVPPNVATGRLPGASLLLEPSSLTANMKEVPLFRLRHFPCGNVNYGYQQQGLPLEAATAPGAGHYEDTILKSKNSMNQPGP

> <PDB ID(s) of Target Chain>
2XB7,2XBA,3AOX,5FTO,5FTQ,6E0R,6EBW,6EDL,6MX8

> <UniProt (SwissProt) Recommended Name of Target Chain>
ALK tyrosine kinase receptor

> <UniProt (SwissProt) Entry Name of Target Chain>
ALK_HUMAN

> <UniProt (SwissProt) Primary ID of Target Chain>
Q9UM73

> <UniProt (SwissProt) Secondary ID(s) of Target Chain>
Q4ZFX9,Q53QQ6,Q53RZ4,Q59FI3,Q9Y4K6

> <UniProt (SwissProt) Alternative ID(s) of Target Chain>


> <UniProt (TrEMBL) Submitted Name of Target Chain>


> <UniProt (TrEMBL) Entry Name of Target Chain>


> <UniProt (TrEMBL) Primary ID of Target Chain>


> <UniProt (TrEMBL) Secondary ID(s) of Target Chain>


> <UniProt (TrEMBL) Alternative ID(s) of Target Chain>


$$$$
00158001.cdx
  Mrv0541 02211919242D          

 36 38  0  0  0  0            999 V2000
   -2.8579    1.6500    0.0000 C   0  0  0  0  0  0  0  0  0  0  0  0
   -2.8579    0.8250    0.0000 C   0  0  0  0  0  0  0  0  0  0  0  0
   -3.5724    0.4125    0.0000 C   0  0  0  0  0  0  0  0  0  0  0  0
   -4.2868    0.8250    0.0000 C   0  0  0  0  0  0  0  0  0  0  0  0
   -4.2868    1.6500    0.0000 C   0  0  0  0  0  0  0  0  0  0  0  0
   -3.5724    2.0625    0.0000 C   0  0  0  0  0  0  0  0  0  0  0  0
   -2.1434    2.0625    0.0000 S   0  0  0  0  0  0  0  0  0  0  0  0
   -2.5559    2.7770    0.0000 O   0  0  0  0  0  0  0  0  0  0  0  0
   -1.7309    1.3480    0.0000 O   0  0  0  0  0  0  0  0  0  0  0  0
   -1.4289    2.4750    0.0000 C   0  0  0  0  0  0  0  0  0  0  0  0
   -1.4289    3.3000    0.0000 C   0  0  0  0  0  0  0  0  0  0  0  0
   -0.7145    2.0625    0.0000 C   0  0  0  0  0  0  0  0  0  0  0  0
   -2.1434    0.4125    0.0000 N   0  0  0  0  0  0  0  0  0  0  0  0
   -2.1434   -0.4125    0.0000 C   0  0  0  0  0  0  0  0  0  0  0  0
   -2.8579   -0.8250    0.0000 C   0  0  0  0  0  0  0  0  0  0  0  0
   -2.8579   -1.6500    0.0000 C   0  0  0  0  0  0  0  0  0  0  0  0
   -2.1434   -2.0625    0.0000 N   0  0  0  0  0  0  0  0  0  0  0  0
   -1.4289   -1.6500    0.0000 C   0  0  0  0  0  0  0  0  0  0  0  0
   -1.4289   -0.8250    0.0000 N   0  0  0  0  0  0  0  0  0  0  0  0
   -3.5724   -0.4125    0.0000 Cl  0  0  0  0  0  0  0  0  0  0  0  0
   -0.7145   -2.0625    0.0000 N   0  0  0  0  0  0  0  0  0  0  0  0
    0.0000   -1.6500    0.0000 C   0  0  0  0  0  0  0  0  0  0  0  0
    0.0000   -0.8250    0.0000 C   0  0  0  0  0  0  0  0  0  0  0  0
    0.7145   -2.0625    0.0000 C   0  0  0  0  0  0  0  0  0  0  0  0
    1.4289   -1.6500    0.0000 C   0  0  0  0  0  0  0  0  0  0  0  0
    1.4289   -0.8250    0.0000 C   0  0  0  0  0  0  0  0  0  0  0  0
    0.7145   -0.4125    0.0000 C   0  0  0  0  0  0  0  0  0  0  0  0
    0.7145   -2.8875    0.0000 O   0  0  0  0  0  0  0  0  0  0  0  0
    1.4289   -3.3000    0.0000 C   0  0  0  0  0  0  0  0  0  0  0  0
    0.7145    0.4125    0.0000 C   0  0  0  0  0  0  0  0  0  0  0  0
    1.4289    0.8250    0.0000 C   0  0  0  0  0  0  0  0  0  0  0  0
    2.1434    0.4125    0.0000 N   0  0  0  0  0  0  0  0  0  0  0  0
    2.8579    0.8250    0.0000 C   0  0  0  0  0  0  0  0  0  0  0  0
    3.5724    0.4125    0.0000 C   0  0  0  0  0  0  0  0  0  0  0  0
    4.2868    0.8250    0.0000 O   0  0  0  0  0  0  0  0  0  0  0  0
    3.5724   -0.4125    0.0000 O   0  0  0  0  0  0  0  0  0  0  0  0
  1  2  4  0  0  0  0
  2  3  4  0  0  0  0
  3  4  4  0  0  0  0
  4  5  4  0  0  0  0
  5  6  4  0  0  0  0
  6  1  4  0  0  0  0
  1  7  1  0  0  0  0
  7  8  2  0  0  0  0
  7  9  2  0  0  0  0
  7 10  1  0  0  0  0
 10 11  1  0  0  0  0
 10 12  1  0  0  0  0
  2 13  1  0  0  0  0
 13 14  1  0  0  0  0
 14 15  4  0  0  0  0
 15 16  4  0  0  0  0
 16 17  4  0  0  0  0
 17 18  4  0  0  0  0
 18 19  4  0  0  0  0
 19 14  4  0  0  0  0
 15 20  1  0  0  0  0
 18 21  1  0  0  0  0
 21 22  1  0  0  0  0
 22 23  4  0  0  0  0
 22 24  4  0  0  0  0
 24 25  4  0  0  0  0
 25 26  4  0  0  0  0
 26 27  4  0  0  0  0
 27 23  4  0  0  0  0
 24 28  1  0  0  0  0
 28 29  1  0  0  0  0
 27 30  1  0  0  0  0
 30 31  1  0  0  0  0
 31 32  1  0  0  0  0
 32 33  1  0  0  0  0
 33 34  1  0  0  0  0
 34 35  1  0  0  0  0
 34 36  2  0  0  0  0
M  END
> <From>
www.bindingDB.org

> <BindingDB Reactant_set_id>
556935

> <Ligand InChI>
InChI=1S/C24H28ClN5O5S/c1-15(2)36(33,34)21-7-5-4-6-18(21)28-23-17(25)13-27-24(30-23)29-19-12-16(8-9-20(19)35-3)10-11-26-14-22(31)32/h4-9,12-13,15,26H,10-11,14H2,1-3H3,(H,31,32)(H2,27,28,29,30)

> <Ligand InChI Key>
XZAWNQULYQTFPH-UHFFFAOYSA-N

> <BindingDB MonomerID>
291957

> <BindingDB Ligand Name>
US10100019, Example 27

> <Target Name Assigned by Curator or DataSource>
ALK tyrosine kinase receptor

> <Target Source Organism According to Curator or DataSource>
Homo sapiens

> <Ki (nM)>


> <IC50 (nM)>
 3.80

> <Kd (nM)>


> <EC50 (nM)>


> <kon (M-1-s-1)>


> <koff (s-1)>


> <pH>


> <Temp C>
25.00

> <Curation/DataSource>
US Patent

> <Article DOI>
10.1016/j.bmcl.2006.04.076

> <PMID>


> <PubChem AID>


> <Patent Number>
US10100019

> <Authors>
Kim, P; Kim, HR; Cho, SY; Ha, JD; Jung, HJ; Yun, CS; Hwang, JY; Park, CH; Lee, CO; Ahn, S; Chae, CH

> <Institution>
Korea Research Institute of Chemical Technology

> <Link to Ligand in BindingDB>
http://www.bindingdb.org/bind/chemsearch/marvin/MolStructure.jsp?monomerid=291957

> <Link to Ligand-Target Pair in BindingDB>
http://www.bindingdb.org/jsp/dbsearch/PrimarySearch_ki.jsp?energyterm=kJ/mole&tag=pol&polymerid=5809&target=ALK+tyrosine+kinase+receptor&column=ki&startPg=0&Increment=50&submit=Search

> <Link to Ligand-Target Pair in BindingDB>
http://www.bindingdb.org/jsp/dbsearch/PrimarySearch_ki.jsp?energyterm=kJ/mole&tag=r21&monomerid=291957&enzyme=ALK+tyrosine+kinase+receptor&column=ki&startPg=0&Increment=50&submit=Search

> <Ligand HET ID in PDB>


> <PDB ID(s) for Ligand-Target Complex>


> <PubChem CID>
122629307

> <PubChem SID>
381612256

> <ChEBI ID of Ligand>


> <ChEMBL ID of Ligand>


> <DrugBank ID of Ligand>


> <IUPHAR_GRAC ID of Ligand>


> <KEGG ID of Ligand>


> <ZINC ID of Ligand>


> <Number of Protein Chains in Target (>1 implies a multichain complex)>
1

> <BindingDB Target Chain Sequence>
MGAIGLLWLLPLLLSTAAVGSGMGTGQRAGSPAAGPPLQPREPLSYSRLQRKSLAVDFVVPSLFRVYARDLLLPPSSSELKAGRPEARGSLALDCAPLLRLLGPAPGVSWTAGSPAPAEARTLSRVLKGGSVRKLRRAKQLVLELGEEAILEGCVGPPGEAAVGLLQFNLSELFSWWIRQGEGRLRIRLMPEKKASEVGREGRLSAAIRASQPRLLFQIFGTGHSSLESPTNMPSPSPDYFTWNLTWIMKDSFPFLSHRSRYGLECSFDFPCELEYSPPLHDLRNQSWSWRRIPSEEASQMDLLDGPGAERSKEMPRGSFLLLNTSADSKHTILSPWMRSSSEHCTLAVSVHRHLQPSGRYIAQLLPHNEAAREILLMPTPGKHGWTVLQGRIGRPDNPFRVALEYISSGNRSLSAVDFFALKNCSEGTSPGSKMALQSSFTCWNGTVLQLGQACDFHQDCAQGEDESQMCRKLPVGFYCNFEDGFCGWTQGTLSPHTPQWQVRTLKDARFQDHQDHALLLSTTDVPASESATVTSATFPAPIKSSPCELRMSWLIRGVLRGNVSLVLVENKTGKEQGRMVWHVAAYEGLSLWQWMVLPLLDVSDRFWLQMVAWWGQGSRAIVAFDNISISLDCYLTISGEDKILQNTAPKSRNLFERNPNKELKPGENSPRQTPIFDPTVHWLFTTCGASGPHGPTQAQCNNAYQNSNLSVEVGSEGPLKGIQIWKVPATDTYSISGYGAAGGKGGKNTMMRSHGVSVLGIFNLEKDDMLYILVGQQGEDACPSTNQLIQKVCIGENNVIEEEIRVNRSVHEWAGGGGGGGGATYVFKMKDGVPVPLIIAAGGGGRAYGAKTDTFHPERLENNSSVLGLNGNSGAAGGGGGWNDNTSLLWAGKSLQEGATGGHSCPQAMKKWGWETRGGFGGGGGGCSSGGGGGGYIGGNAASNNDPEMDGEDGVSFISPLGILYTPALKVMEGHGEVNIKHYLNCSHCEVDECHMDPESHKVICFCDHGTVLAEDGVSCIVSPTPEPHLPLSLILSVVTSALVAALVLAFSGIMIVYRRKHQELQAMQMELQSPEYKLSKLRTSTIMTDYNPNYCFAGKTSSISDLKEVPRKNITLIRGLGHGAFGEVYEGQVSGMPNDPSPLQVAVKTLPEVCSEQDELDFLMEALIISKFNHQNIVRCIGVSLQSLPRFILLELMAGGDLKSFLRETRPRPSQPSSLAMLDLLHVARDIACGCQYLEENHFIHRDIAARNCLLTCPGPGRVAKIGDFGMARDIYRASYYRKGGCAMLPVKWMPPEAFMEGIFTSKTDTWSFGVLLWEIFSLGYMPYPSKSNQEVLEFVTSGGRMDPPKNCPGPVYRIMTQCWQHQPEDRPNFAIILERIEYCTQDPDVINTALPIEYGPLVEEEEKVPVRPKDPEGVPPLLVSQQAKREEERSPAAPPPLPTTSSGKAAKKPTAAEISVRVPRGPAVEGGHVNMAFSQSNPPSELHKVHGSRNKPTSLWNPTYGSWFTEKPTKKNNPIAKKEPHDRGNLGLEGSCTVPPNVATGRLPGASLLLEPSSLTANMKEVPLFRLRHFPCGNVNYGYQQQGLPLEAATAPGAGHYEDTILKSKNSMNQPGP

> <PDB ID(s) of Target Chain>
2XB7,2XBA,3AOX,5FTO,5FTQ,6E0R,6EBW,6EDL,6MX8

> <UniProt (SwissProt) Recommended Name of Target Chain>
ALK tyrosine kinase receptor

> <UniProt (SwissProt) Entry Name of Target Chain>
ALK_HUMAN

> <UniProt (SwissProt) Primary ID of Target Chain>
Q9UM73

> <UniProt (SwissProt) Secondary ID(s) of Target Chain>
Q4ZFX9,Q53QQ6,Q53RZ4,Q59FI3,Q9Y4K6

> <UniProt (SwissProt) Alternative ID(s) of Target Chain>


> <UniProt (TrEMBL) Submitted Name of Target Chain>


> <UniProt (TrEMBL) Entry Name of Target Chain>


> <UniProt (TrEMBL) Primary ID of Target Chain>


> <UniProt (TrEMBL) Secondary ID(s) of Target Chain>


> <UniProt (TrEMBL) Alternative ID(s) of Target Chain>


$$$$
00163001.cdx
  Mrv0541 03161900122D          

 37 39  0  0  0  0            999 V2000
    2.7324   -0.6355    0.0000 C   0  0  0  0  0  0  0  0  0  0  0  0
    2.0179   -1.0480    0.0000 C   0  0  0  0  0  0  0  0  0  0  0  0
    2.0179   -1.8730    0.0000 C   0  0  0  0  0  0  0  0  0  0  0  0
    2.7324   -2.2855    0.0000 C   0  0  0  0  0  0  0  0  0  0  0  0
    3.4468   -1.8730    0.0000 C   0  0  0  0  0  0  0  0  0  0  0  0
    3.4468   -1.0480    0.0000 C   0  0  0  0  0  0  0  0  0  0  0  0
    2.7324    0.1895    0.0000 S   0  0  0  0  0  0  0  0  0  0  0  0
    3.5574    0.1895    0.0000 O   0  0  0  0  0  0  0  0  0  0  0  0
    1.9074    0.1895    0.0000 O   0  0  0  0  0  0  0  0  0  0  0  0
    2.7324    1.0145    0.0000 C   0  0  0  0  0  0  0  0  0  0  0  0
    3.4468    1.4270    0.0000 C   0  0  0  0  0  0  0  0  0  0  0  0
    2.0179    1.4270    0.0000 C   0  0  0  0  0  0  0  0  0  0  0  0
    1.3034   -0.6355    0.0000 N   0  0  0  0  0  0  0  0  0  0  0  0
    0.5890   -1.0480    0.0000 C   0  0  0  0  0  0  0  0  0  0  0  0
    0.5890   -1.8730    0.0000 C   0  0  0  0  0  0  0  0  0  0  0  0
   -0.1255   -2.2855    0.0000 C   0  0  0  0  0  0  0  0  0  0  0  0
   -0.8400   -1.8730    0.0000 N   0  0  0  0  0  0  0  0  0  0  0  0
   -0.8400   -1.0480    0.0000 C   0  0  0  0  0  0  0  0  0  0  0  0
   -0.1255   -0.6355    0.0000 N   0  0  0  0  0  0  0  0  0  0  0  0
    1.3034   -2.2855    0.0000 Cl  0  0  0  0  0  0  0  0  0  0  0  0
   -1.5545   -0.6355    0.0000 N   0  0  0  0  0  0  0  0  0  0  0  0
   -1.5545    0.1895    0.0000 C   0  0  0  0  0  0  0  0  0  0  0  0
   -2.2689    0.6020    0.0000 C   0  0  0  0  0  0  0  0  0  0  0  0
   -0.8400    0.6020    0.0000 C   0  0  0  0  0  0  0  0  0  0  0  0
   -0.8400    1.4270    0.0000 C   0  0  0  0  0  0  0  0  0  0  0  0
   -1.5545    1.8395    0.0000 C   0  0  0  0  0  0  0  0  0  0  0  0
   -2.2689    1.4270    0.0000 C   0  0  0  0  0  0  0  0  0  0  0  0
   -0.1255    0.1895    0.0000 O   0  0  0  0  0  0  0  0  0  0  0  0
    0.5890    0.6020    0.0000 C   0  0  0  0  0  0  0  0  0  0  0  0
   -2.9834    1.8395    0.0000 C   0  0  0  0  0  0  0  0  0  0  0  0
   -3.6979    1.4270    0.0000 N   0  0  0  0  0  0  0  0  0  0  0  0
   -4.4123    1.8395    0.0000 C   0  0  0  0  0  0  0  0  0  0  0  0
   -4.4123    2.6645    0.0000 O   0  0  0  0  0  0  0  0  0  0  0  0
   -5.1268    1.4270    0.0000 C   0  0  0  0  0  0  0  0  0  0  0  0
   -5.8413    1.0145    0.0000 F   0  0  0  0  0  0  0  0  0  0  0  0
   -5.5393    2.1415    0.0000 F   0  0  0  0  0  0  0  0  0  0  0  0
   -4.7143    0.7126    0.0000 F   0  0  0  0  0  0  0  0  0  0  0  0
  1  2  4  0  0  0  0
  2  3  4  0  0  0  0
  3  4  4  0  0  0  0
  4  5  4  0  0  0  0
  5  6  4  0  0  0  0
  6  1  4  0  0  0  0
  1  7  1  0  0  0  0
  7  8  2  0  0  0  0
  7  9  2  0  0  0  0
  7 10  1  0  0  0  0
 10 11  1  0  0  0  0
 10 12  1  0  0  0  0
  2 13  1  0  0  0  0
 13 14  1  0  0  0  0
 14 15  4  0  0  0  0
 15 16  4  0  0  0  0
 16 17  4  0  0  0  0
 17 18  4  0  0  0  0
 18 19  4  0  0  0  0
 19 14  4  0  0  0  0
 15 20  1  0  0  0  0
 18 21  1  0  0  0  0
 21 22  1  0  0  0  0
 22 23  4  0  0  0  0
 22 24  4  0  0  0  0
 24 25  4  0  0  0  0
 25 26  4  0  0  0  0
 26 27  4  0  0  0  0
 27 23  4  0  0  0  0
 24 28  1  0  0  0  0
 28 29  1  0  0  0  0
 27 30  1  0  0  0  0
 30 31  1  0  0  0  0
 31 32  1  0  0  0  0
 32 33  2  0  0  0  0
 32 34  1  0  0  0  0
 34 35  1  0  0  0  0
 34 36  1  0  0  0  0
 34 37  1  0  0  0  0
M  END
> <From>
www.bindingDB.org

> <BindingDB Reactant_set_id>
556936

> <Ligand InChI>
InChI=1S/C23H23ClF3N5O4S/c1-13(2)37(34,35)19-7-5-4-6-16(19)30-20-15(24)12-29-22(32-20)31-17-10-14(8-9-18(17)36-3)11-28-21(33)23(25,26)27/h4-10,12-13H,11H2,1-3H3,(H,28,33)(H2,29,30,31,32)

> <Ligand InChI Key>
GRALRZJBEGFAHQ-UHFFFAOYSA-N

> <BindingDB MonomerID>
291958

> <BindingDB Ligand Name>
US10100019, Example 28

> <Target Name Assigned by Curator or DataSource>
ALK tyrosine kinase receptor

> <Target Source Organism According to Curator or DataSource>
Homo sapiens

> <Ki (nM)>


> <IC50 (nM)>
 97.0

> <Kd (nM)>


> <EC50 (nM)>


> <kon (M-1-s-1)>


> <koff (s-1)>


> <pH>


> <Temp C>
25.00

> <Curation/DataSource>
US Patent

> <Article DOI>
10.1016/j.bmcl.2006.04.076

> <PMID>


> <PubChem AID>


> <Patent Number>
US10100019

> <Authors>
Kim, P; Kim, HR; Cho, SY; Ha, JD; Jung, HJ; Yun, CS; Hwang, JY; Park, CH; Lee, CO; Ahn, S; Chae, CH

> <Institution>
Korea Research Institute of Chemical Technology

> <Link to Ligand in BindingDB>
http://www.bindingdb.org/bind/chemsearch/marvin/MolStructure.jsp?monomerid=291958

> <Link to Ligand-Target Pair in BindingDB>
http://www.bindingdb.org/jsp/dbsearch/PrimarySearch_ki.jsp?energyterm=kJ/mole&tag=pol&polymerid=5809&target=ALK+tyrosine+kinase+receptor&column=ki&startPg=0&Increment=50&submit=Search

> <Link to Ligand-Target Pair in BindingDB>
http://www.bindingdb.org/jsp/dbsearch/PrimarySearch_ki.jsp?energyterm=kJ/mole&tag=r21&monomerid=291958&enzyme=ALK+tyrosine+kinase+receptor&column=ki&startPg=0&Increment=50&submit=Search

> <Ligand HET ID in PDB>


> <PDB ID(s) for Ligand-Target Complex>


> <PubChem CID>
134451458

> <PubChem SID>
381612257

> <ChEBI ID of Ligand>


> <ChEMBL ID of Ligand>


> <DrugBank ID of Ligand>


> <IUPHAR_GRAC ID of Ligand>


> <KEGG ID of Ligand>


> <ZINC ID of Ligand>


> <Number of Protein Chains in Target (>1 implies a multichain complex)>
1

> <BindingDB Target Chain Sequence>
MGAIGLLWLLPLLLSTAAVGSGMGTGQRAGSPAAGPPLQPREPLSYSRLQRKSLAVDFVVPSLFRVYARDLLLPPSSSELKAGRPEARGSLALDCAPLLRLLGPAPGVSWTAGSPAPAEARTLSRVLKGGSVRKLRRAKQLVLELGEEAILEGCVGPPGEAAVGLLQFNLSELFSWWIRQGEGRLRIRLMPEKKASEVGREGRLSAAIRASQPRLLFQIFGTGHSSLESPTNMPSPSPDYFTWNLTWIMKDSFPFLSHRSRYGLECSFDFPCELEYSPPLHDLRNQSWSWRRIPSEEASQMDLLDGPGAERSKEMPRGSFLLLNTSADSKHTILSPWMRSSSEHCTLAVSVHRHLQPSGRYIAQLLPHNEAAREILLMPTPGKHGWTVLQGRIGRPDNPFRVALEYISSGNRSLSAVDFFALKNCSEGTSPGSKMALQSSFTCWNGTVLQLGQACDFHQDCAQGEDESQMCRKLPVGFYCNFEDGFCGWTQGTLSPHTPQWQVRTLKDARFQDHQDHALLLSTTDVPASESATVTSATFPAPIKSSPCELRMSWLIRGVLRGNVSLVLVENKTGKEQGRMVWHVAAYEGLSLWQWMVLPLLDVSDRFWLQMVAWWGQGSRAIVAFDNISISLDCYLTISGEDKILQNTAPKSRNLFERNPNKELKPGENSPRQTPIFDPTVHWLFTTCGASGPHGPTQAQCNNAYQNSNLSVEVGSEGPLKGIQIWKVPATDTYSISGYGAAGGKGGKNTMMRSHGVSVLGIFNLEKDDMLYILVGQQGEDACPSTNQLIQKVCIGENNVIEEEIRVNRSVHEWAGGGGGGGGATYVFKMKDGVPVPLIIAAGGGGRAYGAKTDTFHPERLENNSSVLGLNGNSGAAGGGGGWNDNTSLLWAGKSLQEGATGGHSCPQAMKKWGWETRGGFGGGGGGCSSGGGGGGYIGGNAASNNDPEMDGEDGVSFISPLGILYTPALKVMEGHGEVNIKHYLNCSHCEVDECHMDPESHKVICFCDHGTVLAEDGVSCIVSPTPEPHLPLSLILSVVTSALVAALVLAFSGIMIVYRRKHQELQAMQMELQSPEYKLSKLRTSTIMTDYNPNYCFAGKTSSISDLKEVPRKNITLIRGLGHGAFGEVYEGQVSGMPNDPSPLQVAVKTLPEVCSEQDELDFLMEALIISKFNHQNIVRCIGVSLQSLPRFILLELMAGGDLKSFLRETRPRPSQPSSLAMLDLLHVARDIACGCQYLEENHFIHRDIAARNCLLTCPGPGRVAKIGDFGMARDIYRASYYRKGGCAMLPVKWMPPEAFMEGIFTSKTDTWSFGVLLWEIFSLGYMPYPSKSNQEVLEFVTSGGRMDPPKNCPGPVYRIMTQCWQHQPEDRPNFAIILERIEYCTQDPDVINTALPIEYGPLVEEEEKVPVRPKDPEGVPPLLVSQQAKREEERSPAAPPPLPTTSSGKAAKKPTAAEISVRVPRGPAVEGGHVNMAFSQSNPPSELHKVHGSRNKPTSLWNPTYGSWFTEKPTKKNNPIAKKEPHDRGNLGLEGSCTVPPNVATGRLPGASLLLEPSSLTANMKEVPLFRLRHFPCGNVNYGYQQQGLPLEAATAPGAGHYEDTILKSKNSMNQPGP

> <PDB ID(s) of Target Chain>
2XB7,2XBA,3AOX,5FTO,5FTQ,6E0R,6EBW,6EDL,6MX8

> <UniProt (SwissProt) Recommended Name of Target Chain>
ALK tyrosine kinase receptor

> <UniProt (SwissProt) Entry Name of Target Chain>
ALK_HUMAN

> <UniProt (SwissProt) Primary ID of Target Chain>
Q9UM73

> <UniProt (SwissProt) Secondary ID(s) of Target Chain>
Q4ZFX9,Q53QQ6,Q53RZ4,Q59FI3,Q9Y4K6

> <UniProt (SwissProt) Alternative ID(s) of Target Chain>


> <UniProt (TrEMBL) Submitted Name of Target Chain>


> <UniProt (TrEMBL) Entry Name of Target Chain>


> <UniProt (TrEMBL) Primary ID of Target Chain>


> <UniProt (TrEMBL) Secondary ID(s) of Target Chain>


> <UniProt (TrEMBL) Alternative ID(s) of Target Chain>


$$$$
00159001.cdx
  Mrv0541 02211919242D          

 31 33  0  0  0  0            999 V2000
   -1.4289    1.6500    0.0000 C   0  0  0  0  0  0  0  0  0  0  0  0
   -1.4289    0.8250    0.0000 C   0  0  0  0  0  0  0  0  0  0  0  0
   -2.1434    0.4125    0.0000 C   0  0  0  0  0  0  0  0  0  0  0  0
   -2.8579    0.8250    0.0000 C   0  0  0  0  0  0  0  0  0  0  0  0
   -2.8579    1.6500    0.0000 C   0  0  0  0  0  0  0  0  0  0  0  0
   -2.1434    2.0625    0.0000 C   0  0  0  0  0  0  0  0  0  0  0  0
   -0.7145    2.0625    0.0000 S   0  0  0  0  0  0  0  0  0  0  0  0
   -1.1270    2.7770    0.0000 O   0  0  0  0  0  0  0  0  0  0  0  0
   -0.3020    1.3480    0.0000 O   0  0  0  0  0  0  0  0  0  0  0  0
    0.0000    2.4750    0.0000 C   0  0  0  0  0  0  0  0  0  0  0  0
    0.0000    3.3000    0.0000 C   0  0  0  0  0  0  0  0  0  0  0  0
    0.7145    2.0625    0.0000 C   0  0  0  0  0  0  0  0  0  0  0  0
   -0.7145    0.4125    0.0000 N   0  0  0  0  0  0  0  0  0  0  0  0
   -0.7145   -0.4125    0.0000 C   0  0  0  0  0  0  0  0  0  0  0  0
   -1.4289   -0.8250    0.0000 C   0  0  0  0  0  0  0  0  0  0  0  0
   -1.4289   -1.6500    0.0000 C   0  0  0  0  0  0  0  0  0  0  0  0
   -0.7145   -2.0625    0.0000 N   0  0  0  0  0  0  0  0  0  0  0  0
    0.0000   -1.6500    0.0000 C   0  0  0  0  0  0  0  0  0  0  0  0
    0.0000   -0.8250    0.0000 N   0  0  0  0  0  0  0  0  0  0  0  0
   -2.1434   -0.4125    0.0000 Cl  0  0  0  0  0  0  0  0  0  0  0  0
    0.7145   -2.0625    0.0000 N   0  0  0  0  0  0  0  0  0  0  0  0
    1.4289   -1.6500    0.0000 C   0  0  0  0  0  0  0  0  0  0  0  0
    1.4289   -0.8250    0.0000 C   0  0  0  0  0  0  0  0  0  0  0  0
    2.1434   -2.0625    0.0000 C   0  0  0  0  0  0  0  0  0  0  0  0
    2.8579   -1.6500    0.0000 C   0  0  0  0  0  0  0  0  0  0  0  0
    2.8579   -0.8250    0.0000 C   0  0  0  0  0  0  0  0  0  0  0  0
    2.1434   -0.4125    0.0000 C   0  0  0  0  0  0  0  0  0  0  0  0
    2.1434   -2.8875    0.0000 O   0  0  0  0  0  0  0  0  0  0  0  0
    2.8579   -3.3000    0.0000 C   0  0  0  0  0  0  0  0  0  0  0  0
    2.1434    0.4125    0.0000 C   0  0  0  0  0  0  0  0  0  0  0  0
    2.8579    0.8250    0.0000 N   0  0  0  0  0  0  0  0  0  0  0  0
  1  2  4  0  0  0  0
  2  3  4  0  0  0  0
  3  4  4  0  0  0  0
  4  5  4  0  0  0  0
  5  6  4  0  0  0  0
  6  1  4  0  0  0  0
  1  7  1  0  0  0  0
  7  8  2  0  0  0  0
  7  9  2  0  0  0  0
  7 10  1  0  0  0  0
 10 11  1  0  0  0  0
 10 12  1  0  0  0  0
  2 13  1  0  0  0  0
 13 14  1  0  0  0  0
 14 15  4  0  0  0  0
 15 16  4  0  0  0  0
 16 17  4  0  0  0  0
 17 18  4  0  0  0  0
 18 19  4  0  0  0  0
 19 14  4  0  0  0  0
 15 20  1  0  0  0  0
 18 21  1  0  0  0  0
 21 22  1  0  0  0  0
 22 23  4  0  0  0  0
 22 24  4  0  0  0  0
 24 25  4  0  0  0  0
 25 26  4  0  0  0  0
 26 27  4  0  0  0  0
 27 23  4  0  0  0  0
 24 28  1  0  0  0  0
 28 29  1  0  0  0  0
 27 30  1  0  0  0  0
 30 31  1  0  0  0  0
M  END
> <From>
www.bindingDB.org

> <BindingDB Reactant_set_id>
556937

> <Ligand InChI>
InChI=1S/C21H24ClN5O3S/c1-13(2)31(28,29)19-7-5-4-6-16(19)25-20-15(22)12-24-21(27-20)26-17-10-14(11-23)8-9-18(17)30-3/h4-10,12-13H,11,23H2,1-3H3,(H2,24,25,26,27)

> <Ligand InChI Key>
RJLMIOROTJPHHU-UHFFFAOYSA-N

> <BindingDB MonomerID>
291959

> <BindingDB Ligand Name>
US10100019, Example 29

> <Target Name Assigned by Curator or DataSource>
ALK tyrosine kinase receptor

> <Target Source Organism According to Curator or DataSource>
Homo sapiens

> <Ki (nM)>


> <IC50 (nM)>
 2.00

> <Kd (nM)>


> <EC50 (nM)>


> <kon (M-1-s-1)>


> <koff (s-1)>


> <pH>


> <Temp C>
25.00

> <Curation/DataSource>
US Patent

> <Article DOI>
10.1016/j.bmcl.2006.04.076

> <PMID>


> <PubChem AID>


> <Patent Number>
US10100019

> <Authors>
Kim, P; Kim, HR; Cho, SY; Ha, JD; Jung, HJ; Yun, CS; Hwang, JY; Park, CH; Lee, CO; Ahn, S; Chae, CH

> <Institution>
Korea Research Institute of Chemical Technology

> <Link to Ligand in BindingDB>
http://www.bindingdb.org/bind/chemsearch/marvin/MolStructure.jsp?monomerid=291959

> <Link to Ligand-Target Pair in BindingDB>
http://www.bindingdb.org/jsp/dbsearch/PrimarySearch_ki.jsp?energyterm=kJ/mole&tag=pol&polymerid=5809&target=ALK+tyrosine+kinase+receptor&column=ki&startPg=0&Increment=50&submit=Search

> <Link to Ligand-Target Pair in BindingDB>
http://www.bindingdb.org/jsp/dbsearch/PrimarySearch_ki.jsp?energyterm=kJ/mole&tag=r21&monomerid=291959&enzyme=ALK+tyrosine+kinase+receptor&column=ki&startPg=0&Increment=50&submit=Search

> <Ligand HET ID in PDB>


> <PDB ID(s) for Ligand-Target Complex>


> <PubChem CID>
134449927

> <PubChem SID>
381612258

> <ChEBI ID of Ligand>


> <ChEMBL ID of Ligand>


> <DrugBank ID of Ligand>


> <IUPHAR_GRAC ID of Ligand>


> <KEGG ID of Ligand>


> <ZINC ID of Ligand>


> <Number of Protein Chains in Target (>1 implies a multichain complex)>
1

> <BindingDB Target Chain Sequence>
MGAIGLLWLLPLLLSTAAVGSGMGTGQRAGSPAAGPPLQPREPLSYSRLQRKSLAVDFVVPSLFRVYARDLLLPPSSSELKAGRPEARGSLALDCAPLLRLLGPAPGVSWTAGSPAPAEARTLSRVLKGGSVRKLRRAKQLVLELGEEAILEGCVGPPGEAAVGLLQFNLSELFSWWIRQGEGRLRIRLMPEKKASEVGREGRLSAAIRASQPRLLFQIFGTGHSSLESPTNMPSPSPDYFTWNLTWIMKDSFPFLSHRSRYGLECSFDFPCELEYSPPLHDLRNQSWSWRRIPSEEASQMDLLDGPGAERSKEMPRGSFLLLNTSADSKHTILSPWMRSSSEHCTLAVSVHRHLQPSGRYIAQLLPHNEAAREILLMPTPGKHGWTVLQGRIGRPDNPFRVALEYISSGNRSLSAVDFFALKNCSEGTSPGSKMALQSSFTCWNGTVLQLGQACDFHQDCAQGEDESQMCRKLPVGFYCNFEDGFCGWTQGTLSPHTPQWQVRTLKDARFQDHQDHALLLSTTDVPASESATVTSATFPAPIKSSPCELRMSWLIRGVLRGNVSLVLVENKTGKEQGRMVWHVAAYEGLSLWQWMVLPLLDVSDRFWLQMVAWWGQGSRAIVAFDNISISLDCYLTISGEDKILQNTAPKSRNLFERNPNKELKPGENSPRQTPIFDPTVHWLFTTCGASGPHGPTQAQCNNAYQNSNLSVEVGSEGPLKGIQIWKVPATDTYSISGYGAAGGKGGKNTMMRSHGVSVLGIFNLEKDDMLYILVGQQGEDACPSTNQLIQKVCIGENNVIEEEIRVNRSVHEWAGGGGGGGGATYVFKMKDGVPVPLIIAAGGGGRAYGAKTDTFHPERLENNSSVLGLNGNSGAAGGGGGWNDNTSLLWAGKSLQEGATGGHSCPQAMKKWGWETRGGFGGGGGGCSSGGGGGGYIGGNAASNNDPEMDGEDGVSFISPLGILYTPALKVMEGHGEVNIKHYLNCSHCEVDECHMDPESHKVICFCDHGTVLAEDGVSCIVSPTPEPHLPLSLILSVVTSALVAALVLAFSGIMIVYRRKHQELQAMQMELQSPEYKLSKLRTSTIMTDYNPNYCFAGKTSSISDLKEVPRKNITLIRGLGHGAFGEVYEGQVSGMPNDPSPLQVAVKTLPEVCSEQDELDFLMEALIISKFNHQNIVRCIGVSLQSLPRFILLELMAGGDLKSFLRETRPRPSQPSSLAMLDLLHVARDIACGCQYLEENHFIHRDIAARNCLLTCPGPGRVAKIGDFGMARDIYRASYYRKGGCAMLPVKWMPPEAFMEGIFTSKTDTWSFGVLLWEIFSLGYMPYPSKSNQEVLEFVTSGGRMDPPKNCPGPVYRIMTQCWQHQPEDRPNFAIILERIEYCTQDPDVINTALPIEYGPLVEEEEKVPVRPKDPEGVPPLLVSQQAKREEERSPAAPPPLPTTSSGKAAKKPTAAEISVRVPRGPAVEGGHVNMAFSQSNPPSELHKVHGSRNKPTSLWNPTYGSWFTEKPTKKNNPIAKKEPHDRGNLGLEGSCTVPPNVATGRLPGASLLLEPSSLTANMKEVPLFRLRHFPCGNVNYGYQQQGLPLEAATAPGAGHYEDTILKSKNSMNQPGP

> <PDB ID(s) of Target Chain>
2XB7,2XBA,3AOX,5FTO,5FTQ,6E0R,6EBW,6EDL,6MX8

> <UniProt (SwissProt) Recommended Name of Target Chain>
ALK tyrosine kinase receptor

> <UniProt (SwissProt) Entry Name of Target Chain>
ALK_HUMAN

> <UniProt (SwissProt) Primary ID of Target Chain>
Q9UM73

> <UniProt (SwissProt) Secondary ID(s) of Target Chain>
Q4ZFX9,Q53QQ6,Q53RZ4,Q59FI3,Q9Y4K6

> <UniProt (SwissProt) Alternative ID(s) of Target Chain>


> <UniProt (TrEMBL) Submitted Name of Target Chain>


> <UniProt (TrEMBL) Entry Name of Target Chain>


> <UniProt (TrEMBL) Primary ID of Target Chain>


> <UniProt (TrEMBL) Secondary ID(s) of Target Chain>


> <UniProt (TrEMBL) Alternative ID(s) of Target Chain>


$$$$
00164001.cdx
  Mrv0541 02211919242D          

 38 40  0  0  0  0            999 V2000
    2.7263   -0.9336    0.0000 C   0  0  0  0  0  0  0  0  0  0  0  0
    2.0118   -1.3461    0.0000 C   0  0  0  0  0  0  0  0  0  0  0  0
    2.0118   -2.1711    0.0000 C   0  0  0  0  0  0  0  0  0  0  0  0
    2.7263   -2.5836    0.0000 C   0  0  0  0  0  0  0  0  0  0  0  0
    3.4407   -2.1711    0.0000 C   0  0  0  0  0  0  0  0  0  0  0  0
    3.4407   -1.3461    0.0000 C   0  0  0  0  0  0  0  0  0  0  0  0
    2.7263   -0.1086    0.0000 S   0  0  0  0  0  0  0  0  0  0  0  0
    3.5513   -0.1086    0.0000 O   0  0  0  0  0  0  0  0  0  0  0  0
    1.9013   -0.1086    0.0000 O   0  0  0  0  0  0  0  0  0  0  0  0
    2.7263    0.7164    0.0000 C   0  0  0  0  0  0  0  0  0  0  0  0
    3.4407    1.1289    0.0000 C   0  0  0  0  0  0  0  0  0  0  0  0
    2.0118    1.1289    0.0000 C   0  0  0  0  0  0  0  0  0  0  0  0
    1.2973   -0.9336    0.0000 N   0  0  0  0  0  0  0  0  0  0  0  0
    0.5829   -1.3461    0.0000 C   0  0  0  0  0  0  0  0  0  0  0  0
    0.5829   -2.1711    0.0000 C   0  0  0  0  0  0  0  0  0  0  0  0
   -0.1316   -2.5836    0.0000 C   0  0  0  0  0  0  0  0  0  0  0  0
   -0.8461   -2.1711    0.0000 N   0  0  0  0  0  0  0  0  0  0  0  0
   -0.8461   -1.3461    0.0000 C   0  0  0  0  0  0  0  0  0  0  0  0
   -0.1316   -0.9336    0.0000 N   0  0  0  0  0  0  0  0  0  0  0  0
    1.2973   -2.5836    0.0000 Cl  0  0  0  0  0  0  0  0  0  0  0  0
   -1.5606   -0.9336    0.0000 N   0  0  0  0  0  0  0  0  0  0  0  0
   -1.5606   -0.1086    0.0000 C   0  0  0  0  0  0  0  0  0  0  0  0
   -2.2750    0.3039    0.0000 C   0  0  0  0  0  0  0  0  0  0  0  0
   -0.8461    0.3039    0.0000 C   0  0  0  0  0  0  0  0  0  0  0  0
   -0.8461    1.1289    0.0000 C   0  0  0  0  0  0  0  0  0  0  0  0
   -1.5606    1.5414    0.0000 C   0  0  0  0  0  0  0  0  0  0  0  0
   -2.2750    1.1289    0.0000 C   0  0  0  0  0  0  0  0  0  0  0  0
   -0.1316   -0.1086    0.0000 O   0  0  0  0  0  0  0  0  0  0  0  0
    0.5829    0.3039    0.0000 C   0  0  0  0  0  0  0  0  0  0  0  0
   -2.9895    1.5414    0.0000 C   0  0  0  0  0  0  0  0  0  0  0  0
   -2.9895    2.3664    0.0000 C   0  0  0  0  0  0  0  0  0  0  0  0
   -3.7040    2.7789    0.0000 N   0  0  0  0  0  0  0  0  0  0  0  0
   -3.7040    3.6039    0.0000 C   0  0  0  0  0  0  0  0  0  0  0  0
   -2.9895    4.0164    0.0000 O   0  0  0  0  0  0  0  0  0  0  0  0
   -4.4184    4.0164    0.0000 C   0  0  0  0  0  0  0  0  0  0  0  0
   -5.1329    4.4289    0.0000 F   0  0  0  0  0  0  0  0  0  0  0  0
   -4.0059    4.7309    0.0000 F   0  0  0  0  0  0  0  0  0  0  0  0
   -4.8309    3.3020    0.0000 F   0  0  0  0  0  0  0  0  0  0  0  0
  1  2  4  0  0  0  0
  2  3  4  0  0  0  0
  3  4  4  0  0  0  0
  4  5  4  0  0  0  0
  5  6  4  0  0  0  0
  6  1  4  0  0  0  0
  1  7  1  0  0  0  0
  7  8  2  0  0  0  0
  7  9  2  0  0  0  0
  7 10  1  0  0  0  0
 10 11  1  0  0  0  0
 10 12  1  0  0  0  0
  2 13  1  0  0  0  0
 13 14  1  0  0  0  0
 14 15  4  0  0  0  0
 15 16  4  0  0  0  0
 16 17  4  0  0  0  0
 17 18  4  0  0  0  0
 18 19  4  0  0  0  0
 19 14  4  0  0  0  0
 15 20  1  0  0  0  0
 18 21  1  0  0  0  0
 21 22  1  0  0  0  0
 22 23  4  0  0  0  0
 22 24  4  0  0  0  0
 24 25  4  0  0  0  0
 25 26  4  0  0  0  0
 26 27  4  0  0  0  0
 27 23  4  0  0  0  0
 24 28  1  0  0  0  0
 28 29  1  0  0  0  0
 27 30  1  0  0  0  0
 30 31  1  0  0  0  0
 31 32  1  0  0  0  0
 32 33  1  0  0  0  0
 33 34  2  0  0  0  0
 33 35  1  0  0  0  0
 35 36  1  0  0  0  0
 35 37  1  0  0  0  0
 35 38  1  0  0  0  0
M  END
> <From>
www.bindingDB.org

> <BindingDB Reactant_set_id>
556938

> <Ligand InChI>
InChI=1S/C24H25ClF3N5O4S/c1-14(2)38(35,36)20-7-5-4-6-17(20)31-21-16(25)13-30-23(33-21)32-18-12-15(8-9-19(18)37-3)10-11-29-22(34)24(26,27)28/h4-9,12-14H,10-11H2,1-3H3,(H,29,34)(H2,30,31,32,33)

> <Ligand InChI Key>
NCDRKKZNMOSYQQ-UHFFFAOYSA-N

> <BindingDB MonomerID>
291960

> <BindingDB Ligand Name>
US10100019, Example 30

> <Target Name Assigned by Curator or DataSource>
ALK tyrosine kinase receptor

> <Target Source Organism According to Curator or DataSource>
Homo sapiens

> <Ki (nM)>


> <IC50 (nM)>
 50.0

> <Kd (nM)>


> <EC50 (nM)>


> <kon (M-1-s-1)>


> <koff (s-1)>


> <pH>


> <Temp C>
25.00

> <Curation/DataSource>
US Patent

> <Article DOI>
10.1016/j.bmcl.2006.04.076

> <PMID>


> <PubChem AID>


> <Patent Number>
US10100019

> <Authors>
Kim, P; Kim, HR; Cho, SY; Ha, JD; Jung, HJ; Yun, CS; Hwang, JY; Park, CH; Lee, CO; Ahn, S; Chae, CH

> <Institution>
Korea Research Institute of Chemical Technology

> <Link to Ligand in BindingDB>
http://www.bindingdb.org/bind/chemsearch/marvin/MolStructure.jsp?monomerid=291960

> <Link to Ligand-Target Pair in BindingDB>
http://www.bindingdb.org/jsp/dbsearch/PrimarySearch_ki.jsp?energyterm=kJ/mole&tag=pol&polymerid=5809&target=ALK+tyrosine+kinase+receptor&column=ki&startPg=0&Increment=50&submit=Search

> <Link to Ligand-Target Pair in BindingDB>
http://www.bindingdb.org/jsp/dbsearch/PrimarySearch_ki.jsp?energyterm=kJ/mole&tag=r21&monomerid=291960&enzyme=ALK+tyrosine+kinase+receptor&column=ki&startPg=0&Increment=50&submit=Search

> <Ligand HET ID in PDB>


> <PDB ID(s) for Ligand-Target Complex>


> <PubChem CID>
134449916

> <PubChem SID>
381612259

> <ChEBI ID of Ligand>


> <ChEMBL ID of Ligand>


> <DrugBank ID of Ligand>


> <IUPHAR_GRAC ID of Ligand>


> <KEGG ID of Ligand>


> <ZINC ID of Ligand>


> <Number of Protein Chains in Target (>1 implies a multichain complex)>
1

> <BindingDB Target Chain Sequence>
MGAIGLLWLLPLLLSTAAVGSGMGTGQRAGSPAAGPPLQPREPLSYSRLQRKSLAVDFVVPSLFRVYARDLLLPPSSSELKAGRPEARGSLALDCAPLLRLLGPAPGVSWTAGSPAPAEARTLSRVLKGGSVRKLRRAKQLVLELGEEAILEGCVGPPGEAAVGLLQFNLSELFSWWIRQGEGRLRIRLMPEKKASEVGREGRLSAAIRASQPRLLFQIFGTGHSSLESPTNMPSPSPDYFTWNLTWIMKDSFPFLSHRSRYGLECSFDFPCELEYSPPLHDLRNQSWSWRRIPSEEASQMDLLDGPGAERSKEMPRGSFLLLNTSADSKHTILSPWMRSSSEHCTLAVSVHRHLQPSGRYIAQLLPHNEAAREILLMPTPGKHGWTVLQGRIGRPDNPFRVALEYISSGNRSLSAVDFFALKNCSEGTSPGSKMALQSSFTCWNGTVLQLGQACDFHQDCAQGEDESQMCRKLPVGFYCNFEDGFCGWTQGTLSPHTPQWQVRTLKDARFQDHQDHALLLSTTDVPASESATVTSATFPAPIKSSPCELRMSWLIRGVLRGNVSLVLVENKTGKEQGRMVWHVAAYEGLSLWQWMVLPLLDVSDRFWLQMVAWWGQGSRAIVAFDNISISLDCYLTISGEDKILQNTAPKSRNLFERNPNKELKPGENSPRQTPIFDPTVHWLFTTCGASGPHGPTQAQCNNAYQNSNLSVEVGSEGPLKGIQIWKVPATDTYSISGYGAAGGKGGKNTMMRSHGVSVLGIFNLEKDDMLYILVGQQGEDACPSTNQLIQKVCIGENNVIEEEIRVNRSVHEWAGGGGGGGGATYVFKMKDGVPVPLIIAAGGGGRAYGAKTDTFHPERLENNSSVLGLNGNSGAAGGGGGWNDNTSLLWAGKSLQEGATGGHSCPQAMKKWGWETRGGFGGGGGGCSSGGGGGGYIGGNAASNNDPEMDGEDGVSFISPLGILYTPALKVMEGHGEVNIKHYLNCSHCEVDECHMDPESHKVICFCDHGTVLAEDGVSCIVSPTPEPHLPLSLILSVVTSALVAALVLAFSGIMIVYRRKHQELQAMQMELQSPEYKLSKLRTSTIMTDYNPNYCFAGKTSSISDLKEVPRKNITLIRGLGHGAFGEVYEGQVSGMPNDPSPLQVAVKTLPEVCSEQDELDFLMEALIISKFNHQNIVRCIGVSLQSLPRFILLELMAGGDLKSFLRETRPRPSQPSSLAMLDLLHVARDIACGCQYLEENHFIHRDIAARNCLLTCPGPGRVAKIGDFGMARDIYRASYYRKGGCAMLPVKWMPPEAFMEGIFTSKTDTWSFGVLLWEIFSLGYMPYPSKSNQEVLEFVTSGGRMDPPKNCPGPVYRIMTQCWQHQPEDRPNFAIILERIEYCTQDPDVINTALPIEYGPLVEEEEKVPVRPKDPEGVPPLLVSQQAKREEERSPAAPPPLPTTSSGKAAKKPTAAEISVRVPRGPAVEGGHVNMAFSQSNPPSELHKVHGSRNKPTSLWNPTYGSWFTEKPTKKNNPIAKKEPHDRGNLGLEGSCTVPPNVATGRLPGASLLLEPSSLTANMKEVPLFRLRHFPCGNVNYGYQQQGLPLEAATAPGAGHYEDTILKSKNSMNQPGP

> <PDB ID(s) of Target Chain>
2XB7,2XBA,3AOX,5FTO,5FTQ,6E0R,6EBW,6EDL,6MX8

> <UniProt (SwissProt) Recommended Name of Target Chain>
ALK tyrosine kinase receptor

> <UniProt (SwissProt) Entry Name of Target Chain>
ALK_HUMAN

> <UniProt (SwissProt) Primary ID of Target Chain>
Q9UM73

> <UniProt (SwissProt) Secondary ID(s) of Target Chain>
Q4ZFX9,Q53QQ6,Q53RZ4,Q59FI3,Q9Y4K6

> <UniProt (SwissProt) Alternative ID(s) of Target Chain>


> <UniProt (TrEMBL) Submitted Name of Target Chain>


> <UniProt (TrEMBL) Entry Name of Target Chain>


> <UniProt (TrEMBL) Primary ID of Target Chain>


> <UniProt (TrEMBL) Secondary ID(s) of Target Chain>


> <UniProt (TrEMBL) Alternative ID(s) of Target Chain>


$$$$
00165001.cdx
  Mrv0541 02211919242D          

 34 36  0  0  0  0            999 V2000
   -1.5156    0.2422    0.0000 C   0  0  0  0  0  0  0  0  0  0  0  0
   -2.2301   -0.1703    0.0000 C   0  0  0  0  0  0  0  0  0  0  0  0
   -2.2301   -0.9953    0.0000 C   0  0  0  0  0  0  0  0  0  0  0  0
   -1.5156   -1.4078    0.0000 N   0  0  0  0  0  0  0  0  0  0  0  0
   -0.8012   -0.9953    0.0000 C   0  0  0  0  0  0  0  0  0  0  0  0
   -0.8012   -0.1703    0.0000 N   0  0  0  0  0  0  0  0  0  0  0  0
   -2.9446    0.2422    0.0000 Cl  0  0  0  0  0  0  0  0  0  0  0  0
   -0.0867   -1.4078    0.0000 N   0  0  0  0  0  0  0  0  0  0  0  0
   -0.8012    2.3047    0.0000 C   0  0  0  0  0  0  0  0  0  0  0  0
   -0.8012    1.4797    0.0000 C   0  0  0  0  0  0  0  0  0  0  0  0
   -0.0867    1.0672    0.0000 C   0  0  0  0  0  0  0  0  0  0  0  0
    0.6278    1.4797    0.0000 C   0  0  0  0  0  0  0  0  0  0  0  0
    0.6278    2.3047    0.0000 C   0  0  0  0  0  0  0  0  0  0  0  0
   -0.0867    2.7172    0.0000 C   0  0  0  0  0  0  0  0  0  0  0  0
   -1.5156    2.7172    0.0000 S   0  0  0  0  0  0  0  0  0  0  0  0
   -1.1031    3.4317    0.0000 O   0  0  0  0  0  0  0  0  0  0  0  0
   -1.9281    2.0028    0.0000 O   0  0  0  0  0  0  0  0  0  0  0  0
   -2.2301    3.1297    0.0000 C   0  0  0  0  0  0  0  0  0  0  0  0
   -2.2301    3.9547    0.0000 C   0  0  0  0  0  0  0  0  0  0  0  0
   -2.9446    2.7172    0.0000 C   0  0  0  0  0  0  0  0  0  0  0  0
   -1.5156    1.0672    0.0000 N   0  0  0  0  0  0  0  0  0  0  0  0
    0.7102   -1.1942    0.0000 C   0  0  0  0  0  0  0  0  0  0  0  0
    0.9237   -0.3973    0.0000 C   0  0  0  0  0  0  0  0  0  0  0  0
    1.2936   -1.7776    0.0000 C   0  0  0  0  0  0  0  0  0  0  0  0
    2.0905   -1.5641    0.0000 C   0  0  0  0  0  0  0  0  0  0  0  0
    2.3040   -0.7672    0.0000 C   0  0  0  0  0  0  0  0  0  0  0  0
    1.7206   -0.1838    0.0000 C   0  0  0  0  0  0  0  0  0  0  0  0
    1.0800   -2.5745    0.0000 O   0  0  0  0  0  0  0  0  0  0  0  0
    1.6634   -3.1579    0.0000 C   0  0  0  0  0  0  0  0  0  0  0  0
    2.4603   -2.9443    0.0000 C   0  0  0  0  0  0  0  0  0  0  0  0
    1.4499   -3.9547    0.0000 C   0  0  0  0  0  0  0  0  0  0  0  0
    1.9341    0.6131    0.0000 C   0  0  0  0  0  0  0  0  0  0  0  0
    2.7310    0.8266    0.0000 C   0  0  0  0  0  0  0  0  0  0  0  0
    2.9446    1.6235    0.0000 N   0  0  0  0  0  0  0  0  0  0  0  0
 21  1  1  0  0  0  0
  1  2  4  0  0  0  0
  2  3  4  0  0  0  0
  3  4  4  0  0  0  0
  4  5  4  0  0  0  0
  5  6  4  0  0  0  0
  6  1  4  0  0  0  0
  2  7  1  0  0  0  0
  5  8  1  0  0  0  0
  9 10  4  0  0  0  0
 10 11  4  0  0  0  0
 11 12  4  0  0  0  0
 12 13  4  0  0  0  0
 13 14  4  0  0  0  0
 14  9  4  0  0  0  0
  9 15  1  0  0  0  0
 15 16  2  0  0  0  0
 15 17  2  0  0  0  0
 15 18  1  0  0  0  0
 18 19  1  0  0  0  0
 18 20  1  0  0  0  0
 10 21  1  0  0  0  0
  8 22  1  0  0  0  0
 22 23  4  0  0  0  0
 22 24  4  0  0  0  0
 24 25  4  0  0  0  0
 25 26  4  0  0  0  0
 26 27  4  0  0  0  0
 27 23  4  0  0  0  0
 24 28  1  0  0  0  0
 28 29  1  0  0  0  0
 29 30  1  0  0  0  0
 29 31  1  0  0  0  0
 27 32  1  0  0  0  0
 32 33  1  0  0  0  0
 33 34  1  0  0  0  0
M  END
> <From>
www.bindingDB.org

> <BindingDB Reactant_set_id>
556939

> <Ligand InChI>
InChI=1S/C24H30ClN5O3S/c1-15(2)33-21-10-9-17(11-12-26)13-20(21)29-24-27-14-18(25)23(30-24)28-19-7-5-6-8-22(19)34(31,32)16(3)4/h5-10,13-16H,11-12,26H2,1-4H3,(H2,27,28,29,30)

> <Ligand InChI Key>
IIFZHKOYTWEVOZ-UHFFFAOYSA-N

> <BindingDB MonomerID>
291961

> <BindingDB Ligand Name>
US10100019, Example 31

> <Target Name Assigned by Curator or DataSource>
ALK tyrosine kinase receptor

> <Target Source Organism According to Curator or DataSource>
Homo sapiens

> <Ki (nM)>


> <IC50 (nM)>
 10.00

> <Kd (nM)>


> <EC50 (nM)>


> <kon (M-1-s-1)>


> <koff (s-1)>


> <pH>


> <Temp C>
25.00

> <Curation/DataSource>
US Patent

> <Article DOI>
10.1016/j.bmcl.2006.04.076

> <PMID>


> <PubChem AID>


> <Patent Number>
US10100019

> <Authors>
Kim, P; Kim, HR; Cho, SY; Ha, JD; Jung, HJ; Yun, CS; Hwang, JY; Park, CH; Lee, CO; Ahn, S; Chae, CH

> <Institution>
Korea Research Institute of Chemical Technology

> <Link to Ligand in BindingDB>
http://www.bindingdb.org/bind/chemsearch/marvin/MolStructure.jsp?monomerid=291961

> <Link to Ligand-Target Pair in BindingDB>
http://www.bindingdb.org/jsp/dbsearch/PrimarySearch_ki.jsp?energyterm=kJ/mole&tag=pol&polymerid=5809&target=ALK+tyrosine+kinase+receptor&column=ki&startPg=0&Increment=50&submit=Search

> <Link to Ligand-Target Pair in BindingDB>
http://www.bindingdb.org/jsp/dbsearch/PrimarySearch_ki.jsp?energyterm=kJ/mole&tag=r21&monomerid=291961&enzyme=ALK+tyrosine+kinase+receptor&column=ki&startPg=0&Increment=50&submit=Search

> <Ligand HET ID in PDB>


> <PDB ID(s) for Ligand-Target Complex>


> <PubChem CID>
134449996

> <PubChem SID>
381612260

> <ChEBI ID of Ligand>


> <ChEMBL ID of Ligand>


> <DrugBank ID of Ligand>


> <IUPHAR_GRAC ID of Ligand>


> <KEGG ID of Ligand>


> <ZINC ID of Ligand>


> <Number of Protein Chains in Target (>1 implies a multichain complex)>
1

> <BindingDB Target Chain Sequence>
MGAIGLLWLLPLLLSTAAVGSGMGTGQRAGSPAAGPPLQPREPLSYSRLQRKSLAVDFVVPSLFRVYARDLLLPPSSSELKAGRPEARGSLALDCAPLLRLLGPAPGVSWTAGSPAPAEARTLSRVLKGGSVRKLRRAKQLVLELGEEAILEGCVGPPGEAAVGLLQFNLSELFSWWIRQGEGRLRIRLMPEKKASEVGREGRLSAAIRASQPRLLFQIFGTGHSSLESPTNMPSPSPDYFTWNLTWIMKDSFPFLSHRSRYGLECSFDFPCELEYSPPLHDLRNQSWSWRRIPSEEASQMDLLDGPGAERSKEMPRGSFLLLNTSADSKHTILSPWMRSSSEHCTLAVSVHRHLQPSGRYIAQLLPHNEAAREILLMPTPGKHGWTVLQGRIGRPDNPFRVALEYISSGNRSLSAVDFFALKNCSEGTSPGSKMALQSSFTCWNGTVLQLGQACDFHQDCAQGEDESQMCRKLPVGFYCNFEDGFCGWTQGTLSPHTPQWQVRTLKDARFQDHQDHALLLSTTDVPASESATVTSATFPAPIKSSPCELRMSWLIRGVLRGNVSLVLVENKTGKEQGRMVWHVAAYEGLSLWQWMVLPLLDVSDRFWLQMVAWWGQGSRAIVAFDNISISLDCYLTISGEDKILQNTAPKSRNLFERNPNKELKPGENSPRQTPIFDPTVHWLFTTCGASGPHGPTQAQCNNAYQNSNLSVEVGSEGPLKGIQIWKVPATDTYSISGYGAAGGKGGKNTMMRSHGVSVLGIFNLEKDDMLYILVGQQGEDACPSTNQLIQKVCIGENNVIEEEIRVNRSVHEWAGGGGGGGGATYVFKMKDGVPVPLIIAAGGGGRAYGAKTDTFHPERLENNSSVLGLNGNSGAAGGGGGWNDNTSLLWAGKSLQEGATGGHSCPQAMKKWGWETRGGFGGGGGGCSSGGGGGGYIGGNAASNNDPEMDGEDGVSFISPLGILYTPALKVMEGHGEVNIKHYLNCSHCEVDECHMDPESHKVICFCDHGTVLAEDGVSCIVSPTPEPHLPLSLILSVVTSALVAALVLAFSGIMIVYRRKHQELQAMQMELQSPEYKLSKLRTSTIMTDYNPNYCFAGKTSSISDLKEVPRKNITLIRGLGHGAFGEVYEGQVSGMPNDPSPLQVAVKTLPEVCSEQDELDFLMEALIISKFNHQNIVRCIGVSLQSLPRFILLELMAGGDLKSFLRETRPRPSQPSSLAMLDLLHVARDIACGCQYLEENHFIHRDIAARNCLLTCPGPGRVAKIGDFGMARDIYRASYYRKGGCAMLPVKWMPPEAFMEGIFTSKTDTWSFGVLLWEIFSLGYMPYPSKSNQEVLEFVTSGGRMDPPKNCPGPVYRIMTQCWQHQPEDRPNFAIILERIEYCTQDPDVINTALPIEYGPLVEEEEKVPVRPKDPEGVPPLLVSQQAKREEERSPAAPPPLPTTSSGKAAKKPTAAEISVRVPRGPAVEGGHVNMAFSQSNPPSELHKVHGSRNKPTSLWNPTYGSWFTEKPTKKNNPIAKKEPHDRGNLGLEGSCTVPPNVATGRLPGASLLLEPSSLTANMKEVPLFRLRHFPCGNVNYGYQQQGLPLEAATAPGAGHYEDTILKSKNSMNQPGP

> <PDB ID(s) of Target Chain>
2XB7,2XBA,3AOX,5FTO,5FTQ,6E0R,6EBW,6EDL,6MX8

> <UniProt (SwissProt) Recommended Name of Target Chain>
ALK tyrosine kinase receptor

> <UniProt (SwissProt) Entry Name of Target Chain>
ALK_HUMAN

> <UniProt (SwissProt) Primary ID of Target Chain>
Q9UM73

> <UniProt (SwissProt) Secondary ID(s) of Target Chain>
Q4ZFX9,Q53QQ6,Q53RZ4,Q59FI3,Q9Y4K6

> <UniProt (SwissProt) Alternative ID(s) of Target Chain>


> <UniProt (TrEMBL) Submitted Name of Target Chain>


> <UniProt (TrEMBL) Entry Name of Target Chain>


> <UniProt (TrEMBL) Primary ID of Target Chain>


> <UniProt (TrEMBL) Secondary ID(s) of Target Chain>


> <UniProt (TrEMBL) Alternative ID(s) of Target Chain>


$$$$
00170001.cdx
  Mrv0541 02211919242D          

 33 35  0  0  0  0            999 V2000
   -1.4289    1.6500    0.0000 C   0  0  0  0  0  0  0  0  0  0  0  0
   -1.4289    0.8250    0.0000 C   0  0  0  0  0  0  0  0  0  0  0  0
   -2.1434    0.4125    0.0000 C   0  0  0  0  0  0  0  0  0  0  0  0
   -2.8579    0.8250    0.0000 C   0  0  0  0  0  0  0  0  0  0  0  0
   -2.8579    1.6500    0.0000 C   0  0  0  0  0  0  0  0  0  0  0  0
   -2.1434    2.0625    0.0000 C   0  0  0  0  0  0  0  0  0  0  0  0
   -0.7145    2.0625    0.0000 S   0  0  0  0  0  0  0  0  0  0  0  0
   -1.1270    2.7770    0.0000 O   0  0  0  0  0  0  0  0  0  0  0  0
   -0.3020    1.3480    0.0000 O   0  0  0  0  0  0  0  0  0  0  0  0
    0.0000    2.4750    0.0000 C   0  0  0  0  0  0  0  0  0  0  0  0
    0.0000    3.3000    0.0000 C   0  0  0  0  0  0  0  0  0  0  0  0
    0.7145    2.0625    0.0000 C   0  0  0  0  0  0  0  0  0  0  0  0
   -0.7145    0.4125    0.0000 N   0  0  0  0  0  0  0  0  0  0  0  0
   -0.7145   -0.4125    0.0000 C   0  0  0  0  0  0  0  0  0  0  0  0
   -1.4289   -0.8250    0.0000 C   0  0  0  0  0  0  0  0  0  0  0  0
   -1.4289   -1.6500    0.0000 C   0  0  0  0  0  0  0  0  0  0  0  0
   -0.7145   -2.0625    0.0000 N   0  0  0  0  0  0  0  0  0  0  0  0
    0.0000   -1.6500    0.0000 C   0  0  0  0  0  0  0  0  0  0  0  0
    0.0000   -0.8250    0.0000 N   0  0  0  0  0  0  0  0  0  0  0  0
   -2.1434   -0.4125    0.0000 Cl  0  0  0  0  0  0  0  0  0  0  0  0
    0.7145   -2.0625    0.0000 N   0  0  0  0  0  0  0  0  0  0  0  0
    1.4289   -1.6500    0.0000 C   0  0  0  0  0  0  0  0  0  0  0  0
    1.4289   -0.8250    0.0000 C   0  0  0  0  0  0  0  0  0  0  0  0
    2.1434   -2.0625    0.0000 C   0  0  0  0  0  0  0  0  0  0  0  0
    2.8579   -1.6500    0.0000 C   0  0  0  0  0  0  0  0  0  0  0  0
    2.8579   -0.8250    0.0000 C   0  0  0  0  0  0  0  0  0  0  0  0
    2.1434   -0.4125    0.0000 C   0  0  0  0  0  0  0  0  0  0  0  0
    2.1434   -2.8875    0.0000 O   0  0  0  0  0  0  0  0  0  0  0  0
    2.8579   -3.3000    0.0000 C   0  0  0  0  0  0  0  0  0  0  0  0
    2.1434    0.4125    0.0000 C   0  0  0  0  0  0  0  0  0  0  0  0
    2.8579    0.8250    0.0000 C   0  0  0  0  0  0  0  0  0  0  0  0
   -3.5724    2.0625    0.0000 F   0  0  0  0  0  0  0  0  0  0  0  0
    3.5724    0.4125    0.0000 N   0  0  0  0  0  0  0  0  0  0  0  0
  1  2  4  0  0  0  0
  2  3  4  0  0  0  0
  3  4  4  0  0  0  0
  4  5  4  0  0  0  0
  5  6  4  0  0  0  0
  6  1  4  0  0  0  0
  1  7  1  0  0  0  0
  7  8  2  0  0  0  0
  7  9  2  0  0  0  0
  7 10  1  0  0  0  0
 10 11  1  0  0  0  0
 10 12  1  0  0  0  0
  2 13  1  0  0  0  0
 13 14  1  0  0  0  0
 14 15  4  0  0  0  0
 15 16  4  0  0  0  0
 16 17  4  0  0  0  0
 17 18  4  0  0  0  0
 18 19  4  0  0  0  0
 19 14  4  0  0  0  0
 15 20  1  0  0  0  0
 18 21  1  0  0  0  0
 21 22  1  0  0  0  0
 22 23  4  0  0  0  0
 22 24  4  0  0  0  0
 24 25  4  0  0  0  0
 25 26  4  0  0  0  0
 26 27  4  0  0  0  0
 27 23  4  0  0  0  0
 24 28  1  0  0  0  0
 28 29  1  0  0  0  0
 27 30  1  0  0  0  0
 30 31  1  0  0  0  0
  5 32  1  0  0  0  0
 31 33  1  0  0  0  0
M  END
> <From>
www.bindingDB.org

> <BindingDB Reactant_set_id>
556940

> <Ligand InChI>
InChI=1S/C22H25ClFN5O3S/c1-13(2)33(30,31)20-11-15(24)5-6-17(20)27-21-16(23)12-26-22(29-21)28-18-10-14(8-9-25)4-7-19(18)32-3/h4-7,10-13H,8-9,25H2,1-3H3,(H2,26,27,28,29)

> <Ligand InChI Key>
RTQRIPALPGYRNN-UHFFFAOYSA-N

> <BindingDB MonomerID>
291962

> <BindingDB Ligand Name>
US10100019, Example 32

> <Target Name Assigned by Curator or DataSource>
ALK tyrosine kinase receptor

> <Target Source Organism According to Curator or DataSource>
Homo sapiens

> <Ki (nM)>


> <IC50 (nM)>
 30.0

> <Kd (nM)>


> <EC50 (nM)>


> <kon (M-1-s-1)>


> <koff (s-1)>


> <pH>


> <Temp C>
25.00

> <Curation/DataSource>
US Patent

> <Article DOI>
10.1016/j.bmcl.2006.04.076

> <PMID>


> <PubChem AID>


> <Patent Number>
US10100019

> <Authors>
Kim, P; Kim, HR; Cho, SY; Ha, JD; Jung, HJ; Yun, CS; Hwang, JY; Park, CH; Lee, CO; Ahn, S; Chae, CH

> <Institution>
Korea Research Institute of Chemical Technology

> <Link to Ligand in BindingDB>
http://www.bindingdb.org/bind/chemsearch/marvin/MolStructure.jsp?monomerid=291962

> <Link to Ligand-Target Pair in BindingDB>
http://www.bindingdb.org/jsp/dbsearch/PrimarySearch_ki.jsp?energyterm=kJ/mole&tag=pol&polymerid=5809&target=ALK+tyrosine+kinase+receptor&column=ki&startPg=0&Increment=50&submit=Search

> <Link to Ligand-Target Pair in BindingDB>
http://www.bindingdb.org/jsp/dbsearch/PrimarySearch_ki.jsp?energyterm=kJ/mole&tag=r21&monomerid=291962&enzyme=ALK+tyrosine+kinase+receptor&column=ki&startPg=0&Increment=50&submit=Search

> <Ligand HET ID in PDB>


> <PDB ID(s) for Ligand-Target Complex>


> <PubChem CID>
122629188

> <PubChem SID>
381612261

> <ChEBI ID of Ligand>


> <ChEMBL ID of Ligand>


> <DrugBank ID of Ligand>


> <IUPHAR_GRAC ID of Ligand>


> <KEGG ID of Ligand>


> <ZINC ID of Ligand>


> <Number of Protein Chains in Target (>1 implies a multichain complex)>
1

> <BindingDB Target Chain Sequence>
MGAIGLLWLLPLLLSTAAVGSGMGTGQRAGSPAAGPPLQPREPLSYSRLQRKSLAVDFVVPSLFRVYARDLLLPPSSSELKAGRPEARGSLALDCAPLLRLLGPAPGVSWTAGSPAPAEARTLSRVLKGGSVRKLRRAKQLVLELGEEAILEGCVGPPGEAAVGLLQFNLSELFSWWIRQGEGRLRIRLMPEKKASEVGREGRLSAAIRASQPRLLFQIFGTGHSSLESPTNMPSPSPDYFTWNLTWIMKDSFPFLSHRSRYGLECSFDFPCELEYSPPLHDLRNQSWSWRRIPSEEASQMDLLDGPGAERSKEMPRGSFLLLNTSADSKHTILSPWMRSSSEHCTLAVSVHRHLQPSGRYIAQLLPHNEAAREILLMPTPGKHGWTVLQGRIGRPDNPFRVALEYISSGNRSLSAVDFFALKNCSEGTSPGSKMALQSSFTCWNGTVLQLGQACDFHQDCAQGEDESQMCRKLPVGFYCNFEDGFCGWTQGTLSPHTPQWQVRTLKDARFQDHQDHALLLSTTDVPASESATVTSATFPAPIKSSPCELRMSWLIRGVLRGNVSLVLVENKTGKEQGRMVWHVAAYEGLSLWQWMVLPLLDVSDRFWLQMVAWWGQGSRAIVAFDNISISLDCYLTISGEDKILQNTAPKSRNLFERNPNKELKPGENSPRQTPIFDPTVHWLFTTCGASGPHGPTQAQCNNAYQNSNLSVEVGSEGPLKGIQIWKVPATDTYSISGYGAAGGKGGKNTMMRSHGVSVLGIFNLEKDDMLYILVGQQGEDACPSTNQLIQKVCIGENNVIEEEIRVNRSVHEWAGGGGGGGGATYVFKMKDGVPVPLIIAAGGGGRAYGAKTDTFHPERLENNSSVLGLNGNSGAAGGGGGWNDNTSLLWAGKSLQEGATGGHSCPQAMKKWGWETRGGFGGGGGGCSSGGGGGGYIGGNAASNNDPEMDGEDGVSFISPLGILYTPALKVMEGHGEVNIKHYLNCSHCEVDECHMDPESHKVICFCDHGTVLAEDGVSCIVSPTPEPHLPLSLILSVVTSALVAALVLAFSGIMIVYRRKHQELQAMQMELQSPEYKLSKLRTSTIMTDYNPNYCFAGKTSSISDLKEVPRKNITLIRGLGHGAFGEVYEGQVSGMPNDPSPLQVAVKTLPEVCSEQDELDFLMEALIISKFNHQNIVRCIGVSLQSLPRFILLELMAGGDLKSFLRETRPRPSQPSSLAMLDLLHVARDIACGCQYLEENHFIHRDIAARNCLLTCPGPGRVAKIGDFGMARDIYRASYYRKGGCAMLPVKWMPPEAFMEGIFTSKTDTWSFGVLLWEIFSLGYMPYPSKSNQEVLEFVTSGGRMDPPKNCPGPVYRIMTQCWQHQPEDRPNFAIILERIEYCTQDPDVINTALPIEYGPLVEEEEKVPVRPKDPEGVPPLLVSQQAKREEERSPAAPPPLPTTSSGKAAKKPTAAEISVRVPRGPAVEGGHVNMAFSQSNPPSELHKVHGSRNKPTSLWNPTYGSWFTEKPTKKNNPIAKKEPHDRGNLGLEGSCTVPPNVATGRLPGASLLLEPSSLTANMKEVPLFRLRHFPCGNVNYGYQQQGLPLEAATAPGAGHYEDTILKSKNSMNQPGP

> <PDB ID(s) of Target Chain>
2XB7,2XBA,3AOX,5FTO,5FTQ,6E0R,6EBW,6EDL,6MX8

> <UniProt (SwissProt) Recommended Name of Target Chain>
ALK tyrosine kinase receptor

> <UniProt (SwissProt) Entry Name of Target Chain>
ALK_HUMAN

> <UniProt (SwissProt) Primary ID of Target Chain>
Q9UM73

> <UniProt (SwissProt) Secondary ID(s) of Target Chain>
Q4ZFX9,Q53QQ6,Q53RZ4,Q59FI3,Q9Y4K6

> <UniProt (SwissProt) Alternative ID(s) of Target Chain>


> <UniProt (TrEMBL) Submitted Name of Target Chain>


> <UniProt (TrEMBL) Entry Name of Target Chain>


> <UniProt (TrEMBL) Primary ID of Target Chain>


> <UniProt (TrEMBL) Secondary ID(s) of Target Chain>


> <UniProt (TrEMBL) Alternative ID(s) of Target Chain>


$$$$
00166001.cdx
  Mrv0541 02211919242D          

 33 35  0  0  0  0            999 V2000
   -1.4051   -0.0713    0.0000 C   0  0  0  0  0  0  0  0  0  0  0  0
   -2.1195   -0.4838    0.0000 C   0  0  0  0  0  0  0  0  0  0  0  0
   -2.1195   -1.3088    0.0000 C   0  0  0  0  0  0  0  0  0  0  0  0
   -1.4051   -1.7213    0.0000 N   0  0  0  0  0  0  0  0  0  0  0  0
   -0.6906   -1.3088    0.0000 C   0  0  0  0  0  0  0  0  0  0  0  0
   -0.6906   -0.4838    0.0000 N   0  0  0  0  0  0  0  0  0  0  0  0
   -2.8340   -0.0713    0.0000 Cl  0  0  0  0  0  0  0  0  0  0  0  0
    0.6906   -1.9912    0.0000 N   0  0  0  0  0  0  0  0  0  0  0  0
    1.4051   -1.5787    0.0000 C   0  0  0  0  0  0  0  0  0  0  0  0
    1.4051   -0.7537    0.0000 C   0  0  0  0  0  0  0  0  0  0  0  0
    2.1195   -1.9912    0.0000 C   0  0  0  0  0  0  0  0  0  0  0  0
    2.8340   -1.5787    0.0000 C   0  0  0  0  0  0  0  0  0  0  0  0
    2.8340   -0.7537    0.0000 C   0  0  0  0  0  0  0  0  0  0  0  0
    2.1195   -0.3412    0.0000 C   0  0  0  0  0  0  0  0  0  0  0  0
    2.1195   -2.8162    0.0000 O   0  0  0  0  0  0  0  0  0  0  0  0
    2.1195    0.4838    0.0000 C   0  0  0  0  0  0  0  0  0  0  0  0
    2.8340    0.8963    0.0000 C   0  0  0  0  0  0  0  0  0  0  0  0
   -0.6906    1.9912    0.0000 C   0  0  0  0  0  0  0  0  0  0  0  0
   -0.6906    1.1662    0.0000 C   0  0  0  0  0  0  0  0  0  0  0  0
    0.0239    0.7537    0.0000 C   0  0  0  0  0  0  0  0  0  0  0  0
    0.7384    1.1662    0.0000 C   0  0  0  0  0  0  0  0  0  0  0  0
    0.7384    1.9912    0.0000 C   0  0  0  0  0  0  0  0  0  0  0  0
    0.0239    2.4037    0.0000 C   0  0  0  0  0  0  0  0  0  0  0  0
   -1.4051    2.4037    0.0000 S   0  0  0  0  0  0  0  0  0  0  0  0
   -1.4051    0.7537    0.0000 N   0  0  0  0  0  0  0  0  0  0  0  0
   -2.1195    1.9912    0.0000 C   0  0  0  0  0  0  0  0  0  0  0  0
   -1.4051    3.2287    0.0000 O   0  0  0  0  0  0  0  0  0  0  0  0
   -0.6906    2.8162    0.0000 O   0  0  0  0  0  0  0  0  0  0  0  0
   -2.8340    2.4037    0.0000 C   0  0  0  0  0  0  0  0  0  0  0  0
   -2.3331    1.1943    0.0000 C   0  0  0  0  0  0  0  0  0  0  0  0
    1.4528    0.7537    0.0000 F   0  0  0  0  0  0  0  0  0  0  0  0
    1.4051   -3.2287    0.0000 C   0  0  0  0  0  0  0  0  0  0  0  0
    2.8340    1.7213    0.0000 N   0  0  0  0  0  0  0  0  0  0  0  0
 25  1  1  0  0  0  0
  1  2  4  0  0  0  0
  2  3  4  0  0  0  0
  3  4  4  0  0  0  0
  4  5  4  0  0  0  0
  5  6  4  0  0  0  0
  6  1  4  0  0  0  0
  2  7  1  0  0  0  0
  5  8  1  0  0  0  0
  8  9  1  0  0  0  0
  9 10  4  0  0  0  0
  9 11  4  0  0  0  0
 11 12  4  0  0  0  0
 12 13  4  0  0  0  0
 13 14  4  0  0  0  0
 14 10  4  0  0  0  0
 11 15  1  0  0  0  0
 14 16  1  0  0  0  0
 16 17  1  0  0  0  0
 18 19  4  0  0  0  0
 19 20  4  0  0  0  0
 20 21  4  0  0  0  0
 21 22  4  0  0  0  0
 22 23  4  0  0  0  0
 23 18  4  0  0  0  0
 18 24  1  0  0  0  0
 19 25  1  0  0  0  0
 24 26  1  0  0  0  0
 24 27  2  0  0  0  0
 24 28  2  0  0  0  0
 26 29  1  0  0  0  0
 26 30  1  0  0  0  0
 21 31  1  0  0  0  0
 15 32  1  0  0  0  0
 17 33  1  0  0  0  0
M  END
> <From>
www.bindingDB.org

> <BindingDB Reactant_set_id>
556941

> <Ligand InChI>
InChI=1S/C22H25ClFN5O3S/c1-13(2)33(30,31)20-7-5-15(24)11-18(20)27-21-16(23)12-26-22(29-21)28-17-10-14(8-9-25)4-6-19(17)32-3/h4-7,10-13H,8-9,25H2,1-3H3,(H2,26,27,28,29)

> <Ligand InChI Key>
ZVKDNTYDSLTOPM-UHFFFAOYSA-N

> <BindingDB MonomerID>
291963

> <BindingDB Ligand Name>
US10100019, Example 33

> <Target Name Assigned by Curator or DataSource>
ALK tyrosine kinase receptor

> <Target Source Organism According to Curator or DataSource>
Homo sapiens

> <Ki (nM)>


> <IC50 (nM)>
 420

> <Kd (nM)>


> <EC50 (nM)>


> <kon (M-1-s-1)>


> <koff (s-1)>


> <pH>


> <Temp C>
25.00

> <Curation/DataSource>
US Patent

> <Article DOI>
10.1016/j.bmcl.2006.04.076

> <PMID>


> <PubChem AID>


> <Patent Number>
US10100019

> <Authors>
Kim, P; Kim, HR; Cho, SY; Ha, JD; Jung, HJ; Yun, CS; Hwang, JY; Park, CH; Lee, CO; Ahn, S; Chae, CH

> <Institution>
Korea Research Institute of Chemical Technology

> <Link to Ligand in BindingDB>
http://www.bindingdb.org/bind/chemsearch/marvin/MolStructure.jsp?monomerid=291963

> <Link to Ligand-Target Pair in BindingDB>
http://www.bindingdb.org/jsp/dbsearch/PrimarySearch_ki.jsp?energyterm=kJ/mole&tag=pol&polymerid=5809&target=ALK+tyrosine+kinase+receptor&column=ki&startPg=0&Increment=50&submit=Search

> <Link to Ligand-Target Pair in BindingDB>
http://www.bindingdb.org/jsp/dbsearch/PrimarySearch_ki.jsp?energyterm=kJ/mole&tag=r21&monomerid=291963&enzyme=ALK+tyrosine+kinase+receptor&column=ki&startPg=0&Increment=50&submit=Search

> <Ligand HET ID in PDB>


> <PDB ID(s) for Ligand-Target Complex>


> <PubChem CID>
122629337

> <PubChem SID>
381612262

> <ChEBI ID of Ligand>


> <ChEMBL ID of Ligand>


> <DrugBank ID of Ligand>


> <IUPHAR_GRAC ID of Ligand>


> <KEGG ID of Ligand>


> <ZINC ID of Ligand>


> <Number of Protein Chains in Target (>1 implies a multichain complex)>
1

> <BindingDB Target Chain Sequence>
MGAIGLLWLLPLLLSTAAVGSGMGTGQRAGSPAAGPPLQPREPLSYSRLQRKSLAVDFVVPSLFRVYARDLLLPPSSSELKAGRPEARGSLALDCAPLLRLLGPAPGVSWTAGSPAPAEARTLSRVLKGGSVRKLRRAKQLVLELGEEAILEGCVGPPGEAAVGLLQFNLSELFSWWIRQGEGRLRIRLMPEKKASEVGREGRLSAAIRASQPRLLFQIFGTGHSSLESPTNMPSPSPDYFTWNLTWIMKDSFPFLSHRSRYGLECSFDFPCELEYSPPLHDLRNQSWSWRRIPSEEASQMDLLDGPGAERSKEMPRGSFLLLNTSADSKHTILSPWMRSSSEHCTLAVSVHRHLQPSGRYIAQLLPHNEAAREILLMPTPGKHGWTVLQGRIGRPDNPFRVALEYISSGNRSLSAVDFFALKNCSEGTSPGSKMALQSSFTCWNGTVLQLGQACDFHQDCAQGEDESQMCRKLPVGFYCNFEDGFCGWTQGTLSPHTPQWQVRTLKDARFQDHQDHALLLSTTDVPASESATVTSATFPAPIKSSPCELRMSWLIRGVLRGNVSLVLVENKTGKEQGRMVWHVAAYEGLSLWQWMVLPLLDVSDRFWLQMVAWWGQGSRAIVAFDNISISLDCYLTISGEDKILQNTAPKSRNLFERNPNKELKPGENSPRQTPIFDPTVHWLFTTCGASGPHGPTQAQCNNAYQNSNLSVEVGSEGPLKGIQIWKVPATDTYSISGYGAAGGKGGKNTMMRSHGVSVLGIFNLEKDDMLYILVGQQGEDACPSTNQLIQKVCIGENNVIEEEIRVNRSVHEWAGGGGGGGGATYVFKMKDGVPVPLIIAAGGGGRAYGAKTDTFHPERLENNSSVLGLNGNSGAAGGGGGWNDNTSLLWAGKSLQEGATGGHSCPQAMKKWGWETRGGFGGGGGGCSSGGGGGGYIGGNAASNNDPEMDGEDGVSFISPLGILYTPALKVMEGHGEVNIKHYLNCSHCEVDECHMDPESHKVICFCDHGTVLAEDGVSCIVSPTPEPHLPLSLILSVVTSALVAALVLAFSGIMIVYRRKHQELQAMQMELQSPEYKLSKLRTSTIMTDYNPNYCFAGKTSSISDLKEVPRKNITLIRGLGHGAFGEVYEGQVSGMPNDPSPLQVAVKTLPEVCSEQDELDFLMEALIISKFNHQNIVRCIGVSLQSLPRFILLELMAGGDLKSFLRETRPRPSQPSSLAMLDLLHVARDIACGCQYLEENHFIHRDIAARNCLLTCPGPGRVAKIGDFGMARDIYRASYYRKGGCAMLPVKWMPPEAFMEGIFTSKTDTWSFGVLLWEIFSLGYMPYPSKSNQEVLEFVTSGGRMDPPKNCPGPVYRIMTQCWQHQPEDRPNFAIILERIEYCTQDPDVINTALPIEYGPLVEEEEKVPVRPKDPEGVPPLLVSQQAKREEERSPAAPPPLPTTSSGKAAKKPTAAEISVRVPRGPAVEGGHVNMAFSQSNPPSELHKVHGSRNKPTSLWNPTYGSWFTEKPTKKNNPIAKKEPHDRGNLGLEGSCTVPPNVATGRLPGASLLLEPSSLTANMKEVPLFRLRHFPCGNVNYGYQQQGLPLEAATAPGAGHYEDTILKSKNSMNQPGP

> <PDB ID(s) of Target Chain>
2XB7,2XBA,3AOX,5FTO,5FTQ,6E0R,6EBW,6EDL,6MX8

> <UniProt (SwissProt) Recommended Name of Target Chain>
ALK tyrosine kinase receptor

> <UniProt (SwissProt) Entry Name of Target Chain>
ALK_HUMAN

> <UniProt (SwissProt) Primary ID of Target Chain>
Q9UM73

> <UniProt (SwissProt) Secondary ID(s) of Target Chain>
Q4ZFX9,Q53QQ6,Q53RZ4,Q59FI3,Q9Y4K6

> <UniProt (SwissProt) Alternative ID(s) of Target Chain>


> <UniProt (TrEMBL) Submitted Name of Target Chain>


> <UniProt (TrEMBL) Entry Name of Target Chain>


> <UniProt (TrEMBL) Primary ID of Target Chain>


> <UniProt (TrEMBL) Secondary ID(s) of Target Chain>


> <UniProt (TrEMBL) Alternative ID(s) of Target Chain>


$$$$
00171001.cdx
  Mrv0541 02211919242D          

 33 35  0  0  0  0            999 V2000
   -1.0717   -0.2062    0.0000 C   0  0  0  0  0  0  0  0  0  0  0  0
   -1.7862   -0.6187    0.0000 C   0  0  0  0  0  0  0  0  0  0  0  0
   -1.7862   -1.4437    0.0000 C   0  0  0  0  0  0  0  0  0  0  0  0
   -1.0717   -1.8563    0.0000 N   0  0  0  0  0  0  0  0  0  0  0  0
   -0.3572   -1.4437    0.0000 C   0  0  0  0  0  0  0  0  0  0  0  0
   -0.3572   -0.6187    0.0000 N   0  0  0  0  0  0  0  0  0  0  0  0
   -2.5006   -0.2062    0.0000 Cl  0  0  0  0  0  0  0  0  0  0  0  0
    1.0717   -1.4437    0.0000 C   0  0  0  0  0  0  0  0  0  0  0  0
    1.0717   -0.6187    0.0000 C   0  0  0  0  0  0  0  0  0  0  0  0
    1.7862   -1.8563    0.0000 C   0  0  0  0  0  0  0  0  0  0  0  0
    2.5006   -1.4437    0.0000 C   0  0  0  0  0  0  0  0  0  0  0  0
    2.5006   -0.6187    0.0000 C   0  0  0  0  0  0  0  0  0  0  0  0
    1.7862   -0.2062    0.0000 C   0  0  0  0  0  0  0  0  0  0  0  0
    1.7862   -2.6812    0.0000 O   0  0  0  0  0  0  0  0  0  0  0  0
    1.7862    0.6187    0.0000 C   0  0  0  0  0  0  0  0  0  0  0  0
    2.5006    1.0313    0.0000 C   0  0  0  0  0  0  0  0  0  0  0  0
   -0.3572    1.8563    0.0000 C   0  0  0  0  0  0  0  0  0  0  0  0
   -0.3572    1.0313    0.0000 C   0  0  0  0  0  0  0  0  0  0  0  0
    0.3572    0.6187    0.0000 C   0  0  0  0  0  0  0  0  0  0  0  0
    1.0717    1.0313    0.0000 C   0  0  0  0  0  0  0  0  0  0  0  0
    1.0717    1.8563    0.0000 C   0  0  0  0  0  0  0  0  0  0  0  0
    0.3572    2.2687    0.0000 C   0  0  0  0  0  0  0  0  0  0  0  0
   -1.0717    2.2687    0.0000 S   0  0  0  0  0  0  0  0  0  0  0  0
   -1.0717    0.6187    0.0000 N   0  0  0  0  0  0  0  0  0  0  0  0
   -1.7862    1.8563    0.0000 C   0  0  0  0  0  0  0  0  0  0  0  0
   -1.0717    3.0938    0.0000 O   0  0  0  0  0  0  0  0  0  0  0  0
   -0.3572    2.6812    0.0000 O   0  0  0  0  0  0  0  0  0  0  0  0
   -2.5006    2.2687    0.0000 C   0  0  0  0  0  0  0  0  0  0  0  0
   -1.9997    1.0594    0.0000 C   0  0  0  0  0  0  0  0  0  0  0  0
    1.0717   -3.0938    0.0000 C   0  0  0  0  0  0  0  0  0  0  0  0
    2.5006    1.8563    0.0000 N   0  0  0  0  0  0  0  0  0  0  0  0
    0.3572   -0.2062    0.0000 F   0  0  0  0  0  0  0  0  0  0  0  0
    0.3572   -1.8563    0.0000 N   0  0  0  0  0  0  0  0  0  0  0  0
 24  1  1  0  0  0  0
  1  2  4  0  0  0  0
  2  3  4  0  0  0  0
  3  4  4  0  0  0  0
  4  5  4  0  0  0  0
  5  6  4  0  0  0  0
  6  1  4  0  0  0  0
  2  7  1  0  0  0  0
 33  8  1  0  0  0  0
  8  9  4  0  0  0  0
  8 10  4  0  0  0  0
 10 11  4  0  0  0  0
 11 12  4  0  0  0  0
 12 13  4  0  0  0  0
 13  9  4  0  0  0  0
 10 14  1  0  0  0  0
 13 15  1  0  0  0  0
 15 16  1  0  0  0  0
 17 18  4  0  0  0  0
 18 19  4  0  0  0  0
 19 20  4  0  0  0  0
 20 21  4  0  0  0  0
 21 22  4  0  0  0  0
 22 17  4  0  0  0  0
 17 23  1  0  0  0  0
 18 24  1  0  0  0  0
 23 25  1  0  0  0  0
 23 26  2  0  0  0  0
 23 27  2  0  0  0  0
 25 28  1  0  0  0  0
 25 29  1  0  0  0  0
 14 30  1  0  0  0  0
 16 31  1  0  0  0  0
 19 32  1  0  0  0  0
  5 33  1  0  0  0  0
M  END
> <From>
www.bindingDB.org

> <BindingDB Reactant_set_id>
556942

> <Ligand InChI>
InChI=1S/C22H25ClFN5O3S/c1-13(2)33(30,31)19-6-4-5-16(24)20(19)28-21-15(23)12-26-22(29-21)27-17-11-14(9-10-25)7-8-18(17)32-3/h4-8,11-13H,9-10,25H2,1-3H3,(H2,26,27,28,29)

> <Ligand InChI Key>
WKDWSBOPBRZOTH-UHFFFAOYSA-N

> <BindingDB MonomerID>
291964

> <BindingDB Ligand Name>
US10100019, Example 34

> <Target Name Assigned by Curator or DataSource>
ALK tyrosine kinase receptor

> <Target Source Organism According to Curator or DataSource>
Homo sapiens

> <Ki (nM)>


> <IC50 (nM)>
 170

> <Kd (nM)>


> <EC50 (nM)>


> <kon (M-1-s-1)>


> <koff (s-1)>


> <pH>


> <Temp C>
25.00

> <Curation/DataSource>
US Patent

> <Article DOI>
10.1016/j.bmcl.2006.04.076

> <PMID>


> <PubChem AID>


> <Patent Number>
US10100019

> <Authors>
Kim, P; Kim, HR; Cho, SY; Ha, JD; Jung, HJ; Yun, CS; Hwang, JY; Park, CH; Lee, CO; Ahn, S; Chae, CH

> <Institution>
Korea Research Institute of Chemical Technology

> <Link to Ligand in BindingDB>
http://www.bindingdb.org/bind/chemsearch/marvin/MolStructure.jsp?monomerid=291964

> <Link to Ligand-Target Pair in BindingDB>
http://www.bindingdb.org/jsp/dbsearch/PrimarySearch_ki.jsp?energyterm=kJ/mole&tag=pol&polymerid=5809&target=ALK+tyrosine+kinase+receptor&column=ki&startPg=0&Increment=50&submit=Search

> <Link to Ligand-Target Pair in BindingDB>
http://www.bindingdb.org/jsp/dbsearch/PrimarySearch_ki.jsp?energyterm=kJ/mole&tag=r21&monomerid=291964&enzyme=ALK+tyrosine+kinase+receptor&column=ki&startPg=0&Increment=50&submit=Search

> <Ligand HET ID in PDB>


> <PDB ID(s) for Ligand-Target Complex>


> <PubChem CID>
122629176

> <PubChem SID>
381612263

> <ChEBI ID of Ligand>


> <ChEMBL ID of Ligand>


> <DrugBank ID of Ligand>


> <IUPHAR_GRAC ID of Ligand>


> <KEGG ID of Ligand>


> <ZINC ID of Ligand>


> <Number of Protein Chains in Target (>1 implies a multichain complex)>
1

> <BindingDB Target Chain Sequence>
MGAIGLLWLLPLLLSTAAVGSGMGTGQRAGSPAAGPPLQPREPLSYSRLQRKSLAVDFVVPSLFRVYARDLLLPPSSSELKAGRPEARGSLALDCAPLLRLLGPAPGVSWTAGSPAPAEARTLSRVLKGGSVRKLRRAKQLVLELGEEAILEGCVGPPGEAAVGLLQFNLSELFSWWIRQGEGRLRIRLMPEKKASEVGREGRLSAAIRASQPRLLFQIFGTGHSSLESPTNMPSPSPDYFTWNLTWIMKDSFPFLSHRSRYGLECSFDFPCELEYSPPLHDLRNQSWSWRRIPSEEASQMDLLDGPGAERSKEMPRGSFLLLNTSADSKHTILSPWMRSSSEHCTLAVSVHRHLQPSGRYIAQLLPHNEAAREILLMPTPGKHGWTVLQGRIGRPDNPFRVALEYISSGNRSLSAVDFFALKNCSEGTSPGSKMALQSSFTCWNGTVLQLGQACDFHQDCAQGEDESQMCRKLPVGFYCNFEDGFCGWTQGTLSPHTPQWQVRTLKDARFQDHQDHALLLSTTDVPASESATVTSATFPAPIKSSPCELRMSWLIRGVLRGNVSLVLVENKTGKEQGRMVWHVAAYEGLSLWQWMVLPLLDVSDRFWLQMVAWWGQGSRAIVAFDNISISLDCYLTISGEDKILQNTAPKSRNLFERNPNKELKPGENSPRQTPIFDPTVHWLFTTCGASGPHGPTQAQCNNAYQNSNLSVEVGSEGPLKGIQIWKVPATDTYSISGYGAAGGKGGKNTMMRSHGVSVLGIFNLEKDDMLYILVGQQGEDACPSTNQLIQKVCIGENNVIEEEIRVNRSVHEWAGGGGGGGGATYVFKMKDGVPVPLIIAAGGGGRAYGAKTDTFHPERLENNSSVLGLNGNSGAAGGGGGWNDNTSLLWAGKSLQEGATGGHSCPQAMKKWGWETRGGFGGGGGGCSSGGGGGGYIGGNAASNNDPEMDGEDGVSFISPLGILYTPALKVMEGHGEVNIKHYLNCSHCEVDECHMDPESHKVICFCDHGTVLAEDGVSCIVSPTPEPHLPLSLILSVVTSALVAALVLAFSGIMIVYRRKHQELQAMQMELQSPEYKLSKLRTSTIMTDYNPNYCFAGKTSSISDLKEVPRKNITLIRGLGHGAFGEVYEGQVSGMPNDPSPLQVAVKTLPEVCSEQDELDFLMEALIISKFNHQNIVRCIGVSLQSLPRFILLELMAGGDLKSFLRETRPRPSQPSSLAMLDLLHVARDIACGCQYLEENHFIHRDIAARNCLLTCPGPGRVAKIGDFGMARDIYRASYYRKGGCAMLPVKWMPPEAFMEGIFTSKTDTWSFGVLLWEIFSLGYMPYPSKSNQEVLEFVTSGGRMDPPKNCPGPVYRIMTQCWQHQPEDRPNFAIILERIEYCTQDPDVINTALPIEYGPLVEEEEKVPVRPKDPEGVPPLLVSQQAKREEERSPAAPPPLPTTSSGKAAKKPTAAEISVRVPRGPAVEGGHVNMAFSQSNPPSELHKVHGSRNKPTSLWNPTYGSWFTEKPTKKNNPIAKKEPHDRGNLGLEGSCTVPPNVATGRLPGASLLLEPSSLTANMKEVPLFRLRHFPCGNVNYGYQQQGLPLEAATAPGAGHYEDTILKSKNSMNQPGP

> <PDB ID(s) of Target Chain>
2XB7,2XBA,3AOX,5FTO,5FTQ,6E0R,6EBW,6EDL,6MX8

> <UniProt (SwissProt) Recommended Name of Target Chain>
ALK tyrosine kinase receptor

> <UniProt (SwissProt) Entry Name of Target Chain>
ALK_HUMAN

> <UniProt (SwissProt) Primary ID of Target Chain>
Q9UM73

> <UniProt (SwissProt) Secondary ID(s) of Target Chain>
Q4ZFX9,Q53QQ6,Q53RZ4,Q59FI3,Q9Y4K6

> <UniProt (SwissProt) Alternative ID(s) of Target Chain>


> <UniProt (TrEMBL) Submitted Name of Target Chain>


> <UniProt (TrEMBL) Entry Name of Target Chain>


> <UniProt (TrEMBL) Primary ID of Target Chain>


> <UniProt (TrEMBL) Secondary ID(s) of Target Chain>


> <UniProt (TrEMBL) Alternative ID(s) of Target Chain>


$$$$
00167001.cdx
  Mrv0541 02211919242D          

 34 36  0  0  0  0            999 V2000
   -1.4289   -0.2062    0.0000 C   0  0  0  0  0  0  0  0  0  0  0  0
   -2.1434   -0.6187    0.0000 C   0  0  0  0  0  0  0  0  0  0  0  0
   -2.1434   -1.4437    0.0000 C   0  0  0  0  0  0  0  0  0  0  0  0
   -1.4289   -1.8563    0.0000 N   0  0  0  0  0  0  0  0  0  0  0  0
   -0.7145   -1.4437    0.0000 C   0  0  0  0  0  0  0  0  0  0  0  0
   -0.7145   -0.6187    0.0000 N   0  0  0  0  0  0  0  0  0  0  0  0
   -2.8579   -0.2062    0.0000 Cl  0  0  0  0  0  0  0  0  0  0  0  0
    0.7145   -1.4437    0.0000 C   0  0  0  0  0  0  0  0  0  0  0  0
    0.7145   -0.6187    0.0000 C   0  0  0  0  0  0  0  0  0  0  0  0
    1.4289   -1.8563    0.0000 C   0  0  0  0  0  0  0  0  0  0  0  0
    2.1434   -1.4437    0.0000 C   0  0  0  0  0  0  0  0  0  0  0  0
    2.1434   -0.6187    0.0000 C   0  0  0  0  0  0  0  0  0  0  0  0
    1.4289   -0.2062    0.0000 C   0  0  0  0  0  0  0  0  0  0  0  0
    1.4289   -2.6812    0.0000 O   0  0  0  0  0  0  0  0  0  0  0  0
    1.4289    0.6187    0.0000 C   0  0  0  0  0  0  0  0  0  0  0  0
    2.1434    1.0313    0.0000 C   0  0  0  0  0  0  0  0  0  0  0  0
   -0.7145    1.8563    0.0000 C   0  0  0  0  0  0  0  0  0  0  0  0
   -0.7145    1.0313    0.0000 C   0  0  0  0  0  0  0  0  0  0  0  0
    0.0000    0.6187    0.0000 C   0  0  0  0  0  0  0  0  0  0  0  0
    0.7145    1.0313    0.0000 C   0  0  0  0  0  0  0  0  0  0  0  0
    0.7145    1.8563    0.0000 C   0  0  0  0  0  0  0  0  0  0  0  0
    0.0000    2.2687    0.0000 C   0  0  0  0  0  0  0  0  0  0  0  0
   -1.4289    2.2687    0.0000 S   0  0  0  0  0  0  0  0  0  0  0  0
   -1.4289    0.6187    0.0000 N   0  0  0  0  0  0  0  0  0  0  0  0
   -2.1434    1.8563    0.0000 C   0  0  0  0  0  0  0  0  0  0  0  0
   -1.4289    3.0938    0.0000 O   0  0  0  0  0  0  0  0  0  0  0  0
   -0.7145    2.6812    0.0000 O   0  0  0  0  0  0  0  0  0  0  0  0
   -2.8579    2.2687    0.0000 C   0  0  0  0  0  0  0  0  0  0  0  0
   -2.3569    1.0594    0.0000 C   0  0  0  0  0  0  0  0  0  0  0  0
    0.0000   -1.8563    0.0000 N   0  0  0  0  0  0  0  0  0  0  0  0
    2.1434   -3.0938    0.0000 C   0  0  0  0  0  0  0  0  0  0  0  0
    2.8579    0.6187    0.0000 N   0  0  0  0  0  0  0  0  0  0  0  0
    0.7145    0.2062    0.0000 C   0  0  0  0  0  0  0  0  0  0  0  0
    1.4289    1.4437    0.0000 C   0  0  0  0  0  0  0  0  0  0  0  0
 24  1  1  0  0  0  0
  1  2  4  0  0  0  0
  2  3  4  0  0  0  0
  3  4  4  0  0  0  0
  4  5  4  0  0  0  0
  5  6  4  0  0  0  0
  6  1  4  0  0  0  0
  2  7  1  0  0  0  0
 30  8  1  0  0  0  0
  8  9  4  0  0  0  0
  8 10  4  0  0  0  0
 10 11  4  0  0  0  0
 11 12  4  0  0  0  0
 12 13  4  0  0  0  0
 13  9  4  0  0  0  0
 10 14  1  0  0  0  0
 13 15  1  0  0  0  0
 15 16  1  0  0  0  0
 17 18  4  0  0  0  0
 18 19  4  0  0  0  0
 19 20  4  0  0  0  0
 20 21  4  0  0  0  0
 21 22  4  0  0  0  0
 22 17  4  0  0  0  0
 17 23  1  0  0  0  0
 18 24  1  0  0  0  0
 23 25  1  0  0  0  0
 23 26  2  0  0  0  0
 23 27  2  0  0  0  0
 25 28  1  0  0  0  0
 25 29  1  0  0  0  0
  5 30  1  0  0  0  0
 14 31  1  0  0  0  0
 16 32  1  0  0  0  0
 15 33  1  0  0  0  0
 15 34  1  0  0  0  0
M  END
> <From>
www.bindingDB.org

> <BindingDB Reactant_set_id>
556943

> <Ligand InChI>
InChI=1S/C24H30ClN5O3S/c1-15(2)34(31,32)21-9-7-6-8-18(21)28-22-17(25)13-27-23(30-22)29-19-12-16(24(3,4)14-26)10-11-20(19)33-5/h6-13,15H,14,26H2,1-5H3,(H2,27,28,29,30)

> <Ligand InChI Key>
IKRBXDCMVJCUOG-UHFFFAOYSA-N

> <BindingDB MonomerID>
291965

> <BindingDB Ligand Name>
US10100019, Example 35

> <Target Name Assigned by Curator or DataSource>
ALK tyrosine kinase receptor

> <Target Source Organism According to Curator or DataSource>
Homo sapiens

> <Ki (nM)>


> <IC50 (nM)>
 30.0

> <Kd (nM)>


> <EC50 (nM)>


> <kon (M-1-s-1)>


> <koff (s-1)>


> <pH>


> <Temp C>
25.00

> <Curation/DataSource>
US Patent

> <Article DOI>
10.1016/j.bmcl.2006.04.076

> <PMID>


> <PubChem AID>


> <Patent Number>
US10100019

> <Authors>
Kim, P; Kim, HR; Cho, SY; Ha, JD; Jung, HJ; Yun, CS; Hwang, JY; Park, CH; Lee, CO; Ahn, S; Chae, CH

> <Institution>
Korea Research Institute of Chemical Technology

> <Link to Ligand in BindingDB>
http://www.bindingdb.org/bind/chemsearch/marvin/MolStructure.jsp?monomerid=291965

> <Link to Ligand-Target Pair in BindingDB>
http://www.bindingdb.org/jsp/dbsearch/PrimarySearch_ki.jsp?energyterm=kJ/mole&tag=pol&polymerid=5809&target=ALK+tyrosine+kinase+receptor&column=ki&startPg=0&Increment=50&submit=Search

> <Link to Ligand-Target Pair in BindingDB>
http://www.bindingdb.org/jsp/dbsearch/PrimarySearch_ki.jsp?energyterm=kJ/mole&tag=r21&monomerid=291965&enzyme=ALK+tyrosine+kinase+receptor&column=ki&startPg=0&Increment=50&submit=Search

> <Ligand HET ID in PDB>


> <PDB ID(s) for Ligand-Target Complex>


> <PubChem CID>
134449943

> <PubChem SID>
381612264

> <ChEBI ID of Ligand>


> <ChEMBL ID of Ligand>


> <DrugBank ID of Ligand>


> <IUPHAR_GRAC ID of Ligand>


> <KEGG ID of Ligand>


> <ZINC ID of Ligand>


> <Number of Protein Chains in Target (>1 implies a multichain complex)>
1

> <BindingDB Target Chain Sequence>
MGAIGLLWLLPLLLSTAAVGSGMGTGQRAGSPAAGPPLQPREPLSYSRLQRKSLAVDFVVPSLFRVYARDLLLPPSSSELKAGRPEARGSLALDCAPLLRLLGPAPGVSWTAGSPAPAEARTLSRVLKGGSVRKLRRAKQLVLELGEEAILEGCVGPPGEAAVGLLQFNLSELFSWWIRQGEGRLRIRLMPEKKASEVGREGRLSAAIRASQPRLLFQIFGTGHSSLESPTNMPSPSPDYFTWNLTWIMKDSFPFLSHRSRYGLECSFDFPCELEYSPPLHDLRNQSWSWRRIPSEEASQMDLLDGPGAERSKEMPRGSFLLLNTSADSKHTILSPWMRSSSEHCTLAVSVHRHLQPSGRYIAQLLPHNEAAREILLMPTPGKHGWTVLQGRIGRPDNPFRVALEYISSGNRSLSAVDFFALKNCSEGTSPGSKMALQSSFTCWNGTVLQLGQACDFHQDCAQGEDESQMCRKLPVGFYCNFEDGFCGWTQGTLSPHTPQWQVRTLKDARFQDHQDHALLLSTTDVPASESATVTSATFPAPIKSSPCELRMSWLIRGVLRGNVSLVLVENKTGKEQGRMVWHVAAYEGLSLWQWMVLPLLDVSDRFWLQMVAWWGQGSRAIVAFDNISISLDCYLTISGEDKILQNTAPKSRNLFERNPNKELKPGENSPRQTPIFDPTVHWLFTTCGASGPHGPTQAQCNNAYQNSNLSVEVGSEGPLKGIQIWKVPATDTYSISGYGAAGGKGGKNTMMRSHGVSVLGIFNLEKDDMLYILVGQQGEDACPSTNQLIQKVCIGENNVIEEEIRVNRSVHEWAGGGGGGGGATYVFKMKDGVPVPLIIAAGGGGRAYGAKTDTFHPERLENNSSVLGLNGNSGAAGGGGGWNDNTSLLWAGKSLQEGATGGHSCPQAMKKWGWETRGGFGGGGGGCSSGGGGGGYIGGNAASNNDPEMDGEDGVSFISPLGILYTPALKVMEGHGEVNIKHYLNCSHCEVDECHMDPESHKVICFCDHGTVLAEDGVSCIVSPTPEPHLPLSLILSVVTSALVAALVLAFSGIMIVYRRKHQELQAMQMELQSPEYKLSKLRTSTIMTDYNPNYCFAGKTSSISDLKEVPRKNITLIRGLGHGAFGEVYEGQVSGMPNDPSPLQVAVKTLPEVCSEQDELDFLMEALIISKFNHQNIVRCIGVSLQSLPRFILLELMAGGDLKSFLRETRPRPSQPSSLAMLDLLHVARDIACGCQYLEENHFIHRDIAARNCLLTCPGPGRVAKIGDFGMARDIYRASYYRKGGCAMLPVKWMPPEAFMEGIFTSKTDTWSFGVLLWEIFSLGYMPYPSKSNQEVLEFVTSGGRMDPPKNCPGPVYRIMTQCWQHQPEDRPNFAIILERIEYCTQDPDVINTALPIEYGPLVEEEEKVPVRPKDPEGVPPLLVSQQAKREEERSPAAPPPLPTTSSGKAAKKPTAAEISVRVPRGPAVEGGHVNMAFSQSNPPSELHKVHGSRNKPTSLWNPTYGSWFTEKPTKKNNPIAKKEPHDRGNLGLEGSCTVPPNVATGRLPGASLLLEPSSLTANMKEVPLFRLRHFPCGNVNYGYQQQGLPLEAATAPGAGHYEDTILKSKNSMNQPGP

> <PDB ID(s) of Target Chain>
2XB7,2XBA,3AOX,5FTO,5FTQ,6E0R,6EBW,6EDL,6MX8

> <UniProt (SwissProt) Recommended Name of Target Chain>
ALK tyrosine kinase receptor

> <UniProt (SwissProt) Entry Name of Target Chain>
ALK_HUMAN

> <UniProt (SwissProt) Primary ID of Target Chain>
Q9UM73

> <UniProt (SwissProt) Secondary ID(s) of Target Chain>
Q4ZFX9,Q53QQ6,Q53RZ4,Q59FI3,Q9Y4K6

> <UniProt (SwissProt) Alternative ID(s) of Target Chain>


> <UniProt (TrEMBL) Submitted Name of Target Chain>


> <UniProt (TrEMBL) Entry Name of Target Chain>


> <UniProt (TrEMBL) Primary ID of Target Chain>


> <UniProt (TrEMBL) Secondary ID(s) of Target Chain>


> <UniProt (TrEMBL) Alternative ID(s) of Target Chain>


$$$$
00172001.cdx
  Mrv0541 02211919242D          

 35 37  0  0  0  0            999 V2000
   -1.4289   -0.2062    0.0000 C   0  0  0  0  0  0  0  0  0  0  0  0
   -2.1434   -0.6187    0.0000 C   0  0  0  0  0  0  0  0  0  0  0  0
   -2.1434   -1.4437    0.0000 C   0  0  0  0  0  0  0  0  0  0  0  0
   -1.4289   -1.8563    0.0000 N   0  0  0  0  0  0  0  0  0  0  0  0
   -0.7145   -1.4437    0.0000 C   0  0  0  0  0  0  0  0  0  0  0  0
   -0.7145   -0.6187    0.0000 N   0  0  0  0  0  0  0  0  0  0  0  0
   -2.8579   -0.2062    0.0000 Cl  0  0  0  0  0  0  0  0  0  0  0  0
    0.7145   -1.4437    0.0000 C   0  0  0  0  0  0  0  0  0  0  0  0
    0.7145   -0.6187    0.0000 C   0  0  0  0  0  0  0  0  0  0  0  0
    1.4289   -1.8563    0.0000 C   0  0  0  0  0  0  0  0  0  0  0  0
    2.1434   -1.4437    0.0000 C   0  0  0  0  0  0  0  0  0  0  0  0
    2.1434   -0.6187    0.0000 C   0  0  0  0  0  0  0  0  0  0  0  0
    1.4289   -0.2062    0.0000 C   0  0  0  0  0  0  0  0  0  0  0  0
    1.4289   -2.6812    0.0000 O   0  0  0  0  0  0  0  0  0  0  0  0
    1.4289    0.6187    0.0000 C   0  0  0  0  0  0  0  0  0  0  0  0
    2.1434    1.0313    0.0000 C   0  0  0  0  0  0  0  0  0  0  0  0
   -0.7145    1.8563    0.0000 C   0  0  0  0  0  0  0  0  0  0  0  0
   -0.7145    1.0313    0.0000 C   0  0  0  0  0  0  0  0  0  0  0  0
    0.0000    0.6187    0.0000 C   0  0  0  0  0  0  0  0  0  0  0  0
    0.7145    1.0313    0.0000 C   0  0  0  0  0  0  0  0  0  0  0  0
    0.7145    1.8563    0.0000 C   0  0  0  0  0  0  0  0  0  0  0  0
    0.0000    2.2687    0.0000 C   0  0  0  0  0  0  0  0  0  0  0  0
   -1.4289    2.2687    0.0000 S   0  0  0  0  0  0  0  0  0  0  0  0
   -1.4289    0.6187    0.0000 N   0  0  0  0  0  0  0  0  0  0  0  0
   -2.1434    1.8563    0.0000 C   0  0  0  0  0  0  0  0  0  0  0  0
   -1.4289    3.0938    0.0000 O   0  0  0  0  0  0  0  0  0  0  0  0
   -0.7145    2.6812    0.0000 O   0  0  0  0  0  0  0  0  0  0  0  0
   -2.8579    2.2687    0.0000 C   0  0  0  0  0  0  0  0  0  0  0  0
   -2.3569    1.0594    0.0000 C   0  0  0  0  0  0  0  0  0  0  0  0
    0.0000   -1.8563    0.0000 N   0  0  0  0  0  0  0  0  0  0  0  0
    2.1434   -3.0938    0.0000 C   0  0  0  0  0  0  0  0  0  0  0  0
    2.8579    0.6187    0.0000 N   0  0  0  0  0  0  0  0  0  0  0  0
    0.7145    0.2062    0.0000 C   0  0  0  0  0  0  0  0  0  0  0  0
    1.4289    1.4437    0.0000 C   0  0  0  0  0  0  0  0  0  0  0  0
    1.4289    2.2687    0.0000 F   0  0  0  0  0  0  0  0  0  0  0  0
 24  1  1  0  0  0  0
  1  2  4  0  0  0  0
  2  3  4  0  0  0  0
  3  4  4  0  0  0  0
  4  5  4  0  0  0  0
  5  6  4  0  0  0  0
  6  1  4  0  0  0  0
  2  7  1  0  0  0  0
 30  8  1  0  0  0  0
  8  9  4  0  0  0  0
  8 10  4  0  0  0  0
 10 11  4  0  0  0  0
 11 12  4  0  0  0  0
 12 13  4  0  0  0  0
 13  9  4  0  0  0  0
 10 14  1  0  0  0  0
 13 15  1  0  0  0  0
 15 16  1  0  0  0  0
 17 18  4  0  0  0  0
 18 19  4  0  0  0  0
 19 20  4  0  0  0  0
 20 21  4  0  0  0  0
 21 22  4  0  0  0  0
 22 17  4  0  0  0  0
 17 23  1  0  0  0  0
 18 24  1  0  0  0  0
 23 25  1  0  0  0  0
 23 26  2  0  0  0  0
 23 27  2  0  0  0  0
 25 28  1  0  0  0  0
 25 29  1  0  0  0  0
  5 30  1  0  0  0  0
 14 31  1  0  0  0  0
 16 32  1  0  0  0  0
 15 33  1  0  0  0  0
 15 34  1  0  0  0  0
 21 35  1  0  0  0  0
M  END
> <From>
www.bindingDB.org

> <BindingDB Reactant_set_id>
556944

> <Ligand InChI>
InChI=1S/C24H29ClFN5O3S/c1-14(2)35(32,33)21-11-16(26)7-8-18(21)29-22-17(25)12-28-23(31-22)30-19-10-15(24(3,4)13-27)6-9-20(19)34-5/h6-12,14H,13,27H2,1-5H3,(H2,28,29,30,31)

> <Ligand InChI Key>
DHEHFJONUKBTAZ-UHFFFAOYSA-N

> <BindingDB MonomerID>
291966

> <BindingDB Ligand Name>
US10100019, Example 36

> <Target Name Assigned by Curator or DataSource>
ALK tyrosine kinase receptor

> <Target Source Organism According to Curator or DataSource>
Homo sapiens

> <Ki (nM)>


> <IC50 (nM)>
 210

> <Kd (nM)>


> <EC50 (nM)>


> <kon (M-1-s-1)>


> <koff (s-1)>


> <pH>


> <Temp C>
25.00

> <Curation/DataSource>
US Patent

> <Article DOI>
10.1016/j.bmcl.2006.04.076

> <PMID>


> <PubChem AID>


> <Patent Number>
US10100019

> <Authors>
Kim, P; Kim, HR; Cho, SY; Ha, JD; Jung, HJ; Yun, CS; Hwang, JY; Park, CH; Lee, CO; Ahn, S; Chae, CH

> <Institution>
Korea Research Institute of Chemical Technology

> <Link to Ligand in BindingDB>
http://www.bindingdb.org/bind/chemsearch/marvin/MolStructure.jsp?monomerid=291966

> <Link to Ligand-Target Pair in BindingDB>
http://www.bindingdb.org/jsp/dbsearch/PrimarySearch_ki.jsp?energyterm=kJ/mole&tag=pol&polymerid=5809&target=ALK+tyrosine+kinase+receptor&column=ki&startPg=0&Increment=50&submit=Search

> <Link to Ligand-Target Pair in BindingDB>
http://www.bindingdb.org/jsp/dbsearch/PrimarySearch_ki.jsp?energyterm=kJ/mole&tag=r21&monomerid=291966&enzyme=ALK+tyrosine+kinase+receptor&column=ki&startPg=0&Increment=50&submit=Search

> <Ligand HET ID in PDB>


> <PDB ID(s) for Ligand-Target Complex>


> <PubChem CID>
134449935

> <PubChem SID>
381612265

> <ChEBI ID of Ligand>


> <ChEMBL ID of Ligand>


> <DrugBank ID of Ligand>


> <IUPHAR_GRAC ID of Ligand>


> <KEGG ID of Ligand>


> <ZINC ID of Ligand>


> <Number of Protein Chains in Target (>1 implies a multichain complex)>
1

> <BindingDB Target Chain Sequence>
MGAIGLLWLLPLLLSTAAVGSGMGTGQRAGSPAAGPPLQPREPLSYSRLQRKSLAVDFVVPSLFRVYARDLLLPPSSSELKAGRPEARGSLALDCAPLLRLLGPAPGVSWTAGSPAPAEARTLSRVLKGGSVRKLRRAKQLVLELGEEAILEGCVGPPGEAAVGLLQFNLSELFSWWIRQGEGRLRIRLMPEKKASEVGREGRLSAAIRASQPRLLFQIFGTGHSSLESPTNMPSPSPDYFTWNLTWIMKDSFPFLSHRSRYGLECSFDFPCELEYSPPLHDLRNQSWSWRRIPSEEASQMDLLDGPGAERSKEMPRGSFLLLNTSADSKHTILSPWMRSSSEHCTLAVSVHRHLQPSGRYIAQLLPHNEAAREILLMPTPGKHGWTVLQGRIGRPDNPFRVALEYISSGNRSLSAVDFFALKNCSEGTSPGSKMALQSSFTCWNGTVLQLGQACDFHQDCAQGEDESQMCRKLPVGFYCNFEDGFCGWTQGTLSPHTPQWQVRTLKDARFQDHQDHALLLSTTDVPASESATVTSATFPAPIKSSPCELRMSWLIRGVLRGNVSLVLVENKTGKEQGRMVWHVAAYEGLSLWQWMVLPLLDVSDRFWLQMVAWWGQGSRAIVAFDNISISLDCYLTISGEDKILQNTAPKSRNLFERNPNKELKPGENSPRQTPIFDPTVHWLFTTCGASGPHGPTQAQCNNAYQNSNLSVEVGSEGPLKGIQIWKVPATDTYSISGYGAAGGKGGKNTMMRSHGVSVLGIFNLEKDDMLYILVGQQGEDACPSTNQLIQKVCIGENNVIEEEIRVNRSVHEWAGGGGGGGGATYVFKMKDGVPVPLIIAAGGGGRAYGAKTDTFHPERLENNSSVLGLNGNSGAAGGGGGWNDNTSLLWAGKSLQEGATGGHSCPQAMKKWGWETRGGFGGGGGGCSSGGGGGGYIGGNAASNNDPEMDGEDGVSFISPLGILYTPALKVMEGHGEVNIKHYLNCSHCEVDECHMDPESHKVICFCDHGTVLAEDGVSCIVSPTPEPHLPLSLILSVVTSALVAALVLAFSGIMIVYRRKHQELQAMQMELQSPEYKLSKLRTSTIMTDYNPNYCFAGKTSSISDLKEVPRKNITLIRGLGHGAFGEVYEGQVSGMPNDPSPLQVAVKTLPEVCSEQDELDFLMEALIISKFNHQNIVRCIGVSLQSLPRFILLELMAGGDLKSFLRETRPRPSQPSSLAMLDLLHVARDIACGCQYLEENHFIHRDIAARNCLLTCPGPGRVAKIGDFGMARDIYRASYYRKGGCAMLPVKWMPPEAFMEGIFTSKTDTWSFGVLLWEIFSLGYMPYPSKSNQEVLEFVTSGGRMDPPKNCPGPVYRIMTQCWQHQPEDRPNFAIILERIEYCTQDPDVINTALPIEYGPLVEEEEKVPVRPKDPEGVPPLLVSQQAKREEERSPAAPPPLPTTSSGKAAKKPTAAEISVRVPRGPAVEGGHVNMAFSQSNPPSELHKVHGSRNKPTSLWNPTYGSWFTEKPTKKNNPIAKKEPHDRGNLGLEGSCTVPPNVATGRLPGASLLLEPSSLTANMKEVPLFRLRHFPCGNVNYGYQQQGLPLEAATAPGAGHYEDTILKSKNSMNQPGP

> <PDB ID(s) of Target Chain>
2XB7,2XBA,3AOX,5FTO,5FTQ,6E0R,6EBW,6EDL,6MX8

> <UniProt (SwissProt) Recommended Name of Target Chain>
ALK tyrosine kinase receptor

> <UniProt (SwissProt) Entry Name of Target Chain>
ALK_HUMAN

> <UniProt (SwissProt) Primary ID of Target Chain>
Q9UM73

> <UniProt (SwissProt) Secondary ID(s) of Target Chain>
Q4ZFX9,Q53QQ6,Q53RZ4,Q59FI3,Q9Y4K6

> <UniProt (SwissProt) Alternative ID(s) of Target Chain>


> <UniProt (TrEMBL) Submitted Name of Target Chain>


> <UniProt (TrEMBL) Entry Name of Target Chain>


> <UniProt (TrEMBL) Primary ID of Target Chain>


> <UniProt (TrEMBL) Secondary ID(s) of Target Chain>


> <UniProt (TrEMBL) Alternative ID(s) of Target Chain>


$$$$
00168001.cdx
  Mrv0541 02211919242D          

 35 37  0  0  0  0            999 V2000
   -1.7623   -0.0396    0.0000 C   0  0  0  0  0  0  0  0  0  0  0  0
   -2.4768   -0.4521    0.0000 C   0  0  0  0  0  0  0  0  0  0  0  0
   -2.4768   -1.2771    0.0000 C   0  0  0  0  0  0  0  0  0  0  0  0
   -1.7623   -1.6896    0.0000 N   0  0  0  0  0  0  0  0  0  0  0  0
   -1.0478   -1.2771    0.0000 C   0  0  0  0  0  0  0  0  0  0  0  0
   -1.0478   -0.4521    0.0000 N   0  0  0  0  0  0  0  0  0  0  0  0
   -3.1912   -0.0396    0.0000 Cl  0  0  0  0  0  0  0  0  0  0  0  0
    1.0478   -1.6104    0.0000 C   0  0  0  0  0  0  0  0  0  0  0  0
    1.0478   -0.7854    0.0000 C   0  0  0  0  0  0  0  0  0  0  0  0
    1.7623   -2.0229    0.0000 C   0  0  0  0  0  0  0  0  0  0  0  0
    2.4768   -1.6104    0.0000 C   0  0  0  0  0  0  0  0  0  0  0  0
    2.4768   -0.7854    0.0000 C   0  0  0  0  0  0  0  0  0  0  0  0
    1.7623   -0.3729    0.0000 C   0  0  0  0  0  0  0  0  0  0  0  0
    1.7623   -2.8479    0.0000 O   0  0  0  0  0  0  0  0  0  0  0  0
    1.7623    0.4521    0.0000 C   0  0  0  0  0  0  0  0  0  0  0  0
    2.4768    0.8646    0.0000 C   0  0  0  0  0  0  0  0  0  0  0  0
   -1.0478    2.0229    0.0000 C   0  0  0  0  0  0  0  0  0  0  0  0
   -1.0478    1.1979    0.0000 C   0  0  0  0  0  0  0  0  0  0  0  0
   -0.3334    0.7854    0.0000 C   0  0  0  0  0  0  0  0  0  0  0  0
    0.3811    1.1979    0.0000 C   0  0  0  0  0  0  0  0  0  0  0  0
    0.3811    2.0229    0.0000 C   0  0  0  0  0  0  0  0  0  0  0  0
   -0.3334    2.4354    0.0000 C   0  0  0  0  0  0  0  0  0  0  0  0
   -1.7623    2.4354    0.0000 S   0  0  0  0  0  0  0  0  0  0  0  0
   -1.7623    0.7854    0.0000 N   0  0  0  0  0  0  0  0  0  0  0  0
   -2.4768    2.0229    0.0000 C   0  0  0  0  0  0  0  0  0  0  0  0
   -1.7623    3.2604    0.0000 O   0  0  0  0  0  0  0  0  0  0  0  0
   -1.0478    2.8479    0.0000 O   0  0  0  0  0  0  0  0  0  0  0  0
   -3.1912    2.4354    0.0000 C   0  0  0  0  0  0  0  0  0  0  0  0
   -2.6903    1.2260    0.0000 C   0  0  0  0  0  0  0  0  0  0  0  0
    0.3334   -2.0229    0.0000 N   0  0  0  0  0  0  0  0  0  0  0  0
    2.4768   -3.2604    0.0000 C   0  0  0  0  0  0  0  0  0  0  0  0
    3.1912    0.4521    0.0000 N   0  0  0  0  0  0  0  0  0  0  0  0
    1.0478    0.0396    0.0000 C   0  0  0  0  0  0  0  0  0  0  0  0
    1.7623    1.2771    0.0000 C   0  0  0  0  0  0  0  0  0  0  0  0
    1.0956    0.7854    0.0000 F   0  0  0  0  0  0  0  0  0  0  0  0
 24  1  1  0  0  0  0
  1  2  4  0  0  0  0
  2  3  4  0  0  0  0
  3  4  4  0  0  0  0
  4  5  4  0  0  0  0
  5  6  4  0  0  0  0
  6  1  4  0  0  0  0
  2  7  1  0  0  0  0
 30  8  1  0  0  0  0
  8  9  4  0  0  0  0
  8 10  4  0  0  0  0
 10 11  4  0  0  0  0
 11 12  4  0  0  0  0
 12 13  4  0  0  0  0
 13  9  4  0  0  0  0
 10 14  1  0  0  0  0
 13 15  1  0  0  0  0
 15 16  1  0  0  0  0
 17 18  4  0  0  0  0
 18 19  4  0  0  0  0
 19 20  4  0  0  0  0
 20 21  4  0  0  0  0
 21 22  4  0  0  0  0
 22 17  4  0  0  0  0
 17 23  1  0  0  0  0
 18 24  1  0  0  0  0
 23 25  1  0  0  0  0
 23 26  2  0  0  0  0
 23 27  2  0  0  0  0
 25 28  1  0  0  0  0
 25 29  1  0  0  0  0
  5 30  1  0  0  0  0
 14 31  1  0  0  0  0
 16 32  1  0  0  0  0
 15 33  1  0  0  0  0
 15 34  1  0  0  0  0
 20 35  1  0  0  0  0
M  END
> <From>
www.bindingDB.org

> <BindingDB Reactant_set_id>
556945

> <Ligand InChI>
InChI=1S/C24H29ClFN5O3S/c1-14(2)35(32,33)21-9-7-16(26)11-19(21)29-22-17(25)12-28-23(31-22)30-18-10-15(24(3,4)13-27)6-8-20(18)34-5/h6-12,14H,13,27H2,1-5H3,(H2,28,29,30,31)

> <Ligand InChI Key>
OANIXEYTNDHANX-UHFFFAOYSA-N

> <BindingDB MonomerID>
291967

> <BindingDB Ligand Name>
US10100019, Example 37

> <Target Name Assigned by Curator or DataSource>
ALK tyrosine kinase receptor

> <Target Source Organism According to Curator or DataSource>
Homo sapiens

> <Ki (nM)>


> <IC50 (nM)>
 740

> <Kd (nM)>


> <EC50 (nM)>


> <kon (M-1-s-1)>


> <koff (s-1)>


> <pH>


> <Temp C>
25.00

> <Curation/DataSource>
US Patent

> <Article DOI>
10.1016/j.bmcl.2006.04.076

> <PMID>


> <PubChem AID>


> <Patent Number>
US10100019

> <Authors>
Kim, P; Kim, HR; Cho, SY; Ha, JD; Jung, HJ; Yun, CS; Hwang, JY; Park, CH; Lee, CO; Ahn, S; Chae, CH

> <Institution>
Korea Research Institute of Chemical Technology

> <Link to Ligand in BindingDB>
http://www.bindingdb.org/bind/chemsearch/marvin/MolStructure.jsp?monomerid=291967

> <Link to Ligand-Target Pair in BindingDB>
http://www.bindingdb.org/jsp/dbsearch/PrimarySearch_ki.jsp?energyterm=kJ/mole&tag=pol&polymerid=5809&target=ALK+tyrosine+kinase+receptor&column=ki&startPg=0&Increment=50&submit=Search

> <Link to Ligand-Target Pair in BindingDB>
http://www.bindingdb.org/jsp/dbsearch/PrimarySearch_ki.jsp?energyterm=kJ/mole&tag=r21&monomerid=291967&enzyme=ALK+tyrosine+kinase+receptor&column=ki&startPg=0&Increment=50&submit=Search

> <Ligand HET ID in PDB>


> <PDB ID(s) for Ligand-Target Complex>


> <PubChem CID>
134449940

> <PubChem SID>
381612266

> <ChEBI ID of Ligand>


> <ChEMBL ID of Ligand>


> <DrugBank ID of Ligand>


> <IUPHAR_GRAC ID of Ligand>


> <KEGG ID of Ligand>


> <ZINC ID of Ligand>


> <Number of Protein Chains in Target (>1 implies a multichain complex)>
1

> <BindingDB Target Chain Sequence>
MGAIGLLWLLPLLLSTAAVGSGMGTGQRAGSPAAGPPLQPREPLSYSRLQRKSLAVDFVVPSLFRVYARDLLLPPSSSELKAGRPEARGSLALDCAPLLRLLGPAPGVSWTAGSPAPAEARTLSRVLKGGSVRKLRRAKQLVLELGEEAILEGCVGPPGEAAVGLLQFNLSELFSWWIRQGEGRLRIRLMPEKKASEVGREGRLSAAIRASQPRLLFQIFGTGHSSLESPTNMPSPSPDYFTWNLTWIMKDSFPFLSHRSRYGLECSFDFPCELEYSPPLHDLRNQSWSWRRIPSEEASQMDLLDGPGAERSKEMPRGSFLLLNTSADSKHTILSPWMRSSSEHCTLAVSVHRHLQPSGRYIAQLLPHNEAAREILLMPTPGKHGWTVLQGRIGRPDNPFRVALEYISSGNRSLSAVDFFALKNCSEGTSPGSKMALQSSFTCWNGTVLQLGQACDFHQDCAQGEDESQMCRKLPVGFYCNFEDGFCGWTQGTLSPHTPQWQVRTLKDARFQDHQDHALLLSTTDVPASESATVTSATFPAPIKSSPCELRMSWLIRGVLRGNVSLVLVENKTGKEQGRMVWHVAAYEGLSLWQWMVLPLLDVSDRFWLQMVAWWGQGSRAIVAFDNISISLDCYLTISGEDKILQNTAPKSRNLFERNPNKELKPGENSPRQTPIFDPTVHWLFTTCGASGPHGPTQAQCNNAYQNSNLSVEVGSEGPLKGIQIWKVPATDTYSISGYGAAGGKGGKNTMMRSHGVSVLGIFNLEKDDMLYILVGQQGEDACPSTNQLIQKVCIGENNVIEEEIRVNRSVHEWAGGGGGGGGATYVFKMKDGVPVPLIIAAGGGGRAYGAKTDTFHPERLENNSSVLGLNGNSGAAGGGGGWNDNTSLLWAGKSLQEGATGGHSCPQAMKKWGWETRGGFGGGGGGCSSGGGGGGYIGGNAASNNDPEMDGEDGVSFISPLGILYTPALKVMEGHGEVNIKHYLNCSHCEVDECHMDPESHKVICFCDHGTVLAEDGVSCIVSPTPEPHLPLSLILSVVTSALVAALVLAFSGIMIVYRRKHQELQAMQMELQSPEYKLSKLRTSTIMTDYNPNYCFAGKTSSISDLKEVPRKNITLIRGLGHGAFGEVYEGQVSGMPNDPSPLQVAVKTLPEVCSEQDELDFLMEALIISKFNHQNIVRCIGVSLQSLPRFILLELMAGGDLKSFLRETRPRPSQPSSLAMLDLLHVARDIACGCQYLEENHFIHRDIAARNCLLTCPGPGRVAKIGDFGMARDIYRASYYRKGGCAMLPVKWMPPEAFMEGIFTSKTDTWSFGVLLWEIFSLGYMPYPSKSNQEVLEFVTSGGRMDPPKNCPGPVYRIMTQCWQHQPEDRPNFAIILERIEYCTQDPDVINTALPIEYGPLVEEEEKVPVRPKDPEGVPPLLVSQQAKREEERSPAAPPPLPTTSSGKAAKKPTAAEISVRVPRGPAVEGGHVNMAFSQSNPPSELHKVHGSRNKPTSLWNPTYGSWFTEKPTKKNNPIAKKEPHDRGNLGLEGSCTVPPNVATGRLPGASLLLEPSSLTANMKEVPLFRLRHFPCGNVNYGYQQQGLPLEAATAPGAGHYEDTILKSKNSMNQPGP

> <PDB ID(s) of Target Chain>
2XB7,2XBA,3AOX,5FTO,5FTQ,6E0R,6EBW,6EDL,6MX8

> <UniProt (SwissProt) Recommended Name of Target Chain>
ALK tyrosine kinase receptor

> <UniProt (SwissProt) Entry Name of Target Chain>
ALK_HUMAN

> <UniProt (SwissProt) Primary ID of Target Chain>
Q9UM73

> <UniProt (SwissProt) Secondary ID(s) of Target Chain>
Q4ZFX9,Q53QQ6,Q53RZ4,Q59FI3,Q9Y4K6

> <UniProt (SwissProt) Alternative ID(s) of Target Chain>


> <UniProt (TrEMBL) Submitted Name of Target Chain>


> <UniProt (TrEMBL) Entry Name of Target Chain>


> <UniProt (TrEMBL) Primary ID of Target Chain>


> <UniProt (TrEMBL) Secondary ID(s) of Target Chain>


> <UniProt (TrEMBL) Alternative ID(s) of Target Chain>


$$$$
00173001.cdx
  Mrv0541 02211919242D          

 35 37  0  0  0  0            999 V2000
   -1.2384   -0.1229    0.0000 C   0  0  0  0  0  0  0  0  0  0  0  0
   -1.9529   -0.5354    0.0000 C   0  0  0  0  0  0  0  0  0  0  0  0
   -1.9529   -1.3604    0.0000 C   0  0  0  0  0  0  0  0  0  0  0  0
   -1.2384   -1.7729    0.0000 N   0  0  0  0  0  0  0  0  0  0  0  0
   -0.5239   -1.3604    0.0000 C   0  0  0  0  0  0  0  0  0  0  0  0
   -0.5239   -0.5354    0.0000 N   0  0  0  0  0  0  0  0  0  0  0  0
   -2.6673   -0.1229    0.0000 Cl  0  0  0  0  0  0  0  0  0  0  0  0
    1.2384   -1.5271    0.0000 C   0  0  0  0  0  0  0  0  0  0  0  0
    1.2384   -0.7021    0.0000 C   0  0  0  0  0  0  0  0  0  0  0  0
    1.9529   -1.9396    0.0000 C   0  0  0  0  0  0  0  0  0  0  0  0
    2.6673   -1.5271    0.0000 C   0  0  0  0  0  0  0  0  0  0  0  0
    2.6673   -0.7021    0.0000 C   0  0  0  0  0  0  0  0  0  0  0  0
    1.9529   -0.2896    0.0000 C   0  0  0  0  0  0  0  0  0  0  0  0
    1.9529   -2.7646    0.0000 O   0  0  0  0  0  0  0  0  0  0  0  0
    1.9529    0.5354    0.0000 C   0  0  0  0  0  0  0  0  0  0  0  0
    2.6673    0.9479    0.0000 C   0  0  0  0  0  0  0  0  0  0  0  0
   -0.5239    1.9396    0.0000 C   0  0  0  0  0  0  0  0  0  0  0  0
   -0.5239    1.1146    0.0000 C   0  0  0  0  0  0  0  0  0  0  0  0
    0.1906    0.7021    0.0000 C   0  0  0  0  0  0  0  0  0  0  0  0
    0.9050    1.1146    0.0000 C   0  0  0  0  0  0  0  0  0  0  0  0
    0.9050    1.9396    0.0000 C   0  0  0  0  0  0  0  0  0  0  0  0
    0.1906    2.3521    0.0000 C   0  0  0  0  0  0  0  0  0  0  0  0
   -1.2384    2.3521    0.0000 S   0  0  0  0  0  0  0  0  0  0  0  0
   -1.2384    0.7021    0.0000 N   0  0  0  0  0  0  0  0  0  0  0  0
   -1.9529    1.9396    0.0000 C   0  0  0  0  0  0  0  0  0  0  0  0
   -1.2384    3.1771    0.0000 O   0  0  0  0  0  0  0  0  0  0  0  0
   -0.5239    2.7646    0.0000 O   0  0  0  0  0  0  0  0  0  0  0  0
   -2.6673    2.3521    0.0000 C   0  0  0  0  0  0  0  0  0  0  0  0
   -2.1664    1.1427    0.0000 C   0  0  0  0  0  0  0  0  0  0  0  0
    1.7393    1.3323    0.0000 C   0  0  0  0  0  0  0  0  0  0  0  0
    0.1906   -0.1229    0.0000 F   0  0  0  0  0  0  0  0  0  0  0  0
    1.2384   -3.1771    0.0000 C   0  0  0  0  0  0  0  0  0  0  0  0
    2.6673    1.7729    0.0000 N   0  0  0  0  0  0  0  0  0  0  0  0
    0.5239   -1.9396    0.0000 N   0  0  0  0  0  0  0  0  0  0  0  0
    1.2384    0.9479    0.0000 C   0  0  0  0  0  0  0  0  0  0  0  0
 24  1  1  0  0  0  0
  1  2  4  0  0  0  0
  2  3  4  0  0  0  0
  3  4  4  0  0  0  0
  4  5  4  0  0  0  0
  5  6  4  0  0  0  0
  6  1  4  0  0  0  0
  2  7  1  0  0  0  0
 34  8  1  0  0  0  0
  8  9  4  0  0  0  0
  8 10  4  0  0  0  0
 10 11  4  0  0  0  0
 11 12  4  0  0  0  0
 12 13  4  0  0  0  0
 13  9  4  0  0  0  0
 10 14  1  0  0  0  0
 13 15  1  0  0  0  0
 15 16  1  0  0  0  0
 17 18  4  0  0  0  0
 18 19  4  0  0  0  0
 19 20  4  0  0  0  0
 20 21  4  0  0  0  0
 21 22  4  0  0  0  0
 22 17  4  0  0  0  0
 17 23  1  0  0  0  0
 18 24  1  0  0  0  0
 23 25  1  0  0  0  0
 23 26  2  0  0  0  0
 23 27  2  0  0  0  0
 25 28  1  0  0  0  0
 25 29  1  0  0  0  0
 15 30  1  0  0  0  0
 19 31  1  0  0  0  0
 14 32  1  0  0  0  0
 16 33  1  0  0  0  0
  5 34  1  0  0  0  0
 15 35  1  0  0  0  0
M  END
> <From>
www.bindingDB.org

> <BindingDB Reactant_set_id>
556946

> <Ligand InChI>
InChI=1S/C24H29ClFN5O3S/c1-14(2)35(32,33)20-8-6-7-17(26)21(20)30-22-16(25)12-28-23(31-22)29-18-11-15(24(3,4)13-27)9-10-19(18)34-5/h6-12,14H,13,27H2,1-5H3,(H2,28,29,30,31)

> <Ligand InChI Key>
OTPWFXSYOLLWLQ-UHFFFAOYSA-N

> <BindingDB MonomerID>
291968

> <BindingDB Ligand Name>
US10100019, Example 38

> <Target Name Assigned by Curator or DataSource>
ALK tyrosine kinase receptor

> <Target Source Organism According to Curator or DataSource>
Homo sapiens

> <Ki (nM)>


> <IC50 (nM)>
 2100

> <Kd (nM)>


> <EC50 (nM)>


> <kon (M-1-s-1)>


> <koff (s-1)>


> <pH>


> <Temp C>
25.00

> <Curation/DataSource>
US Patent

> <Article DOI>
10.1016/j.bmcl.2006.04.076

> <PMID>


> <PubChem AID>


> <Patent Number>
US10100019

> <Authors>
Kim, P; Kim, HR; Cho, SY; Ha, JD; Jung, HJ; Yun, CS; Hwang, JY; Park, CH; Lee, CO; Ahn, S; Chae, CH

> <Institution>
Korea Research Institute of Chemical Technology

> <Link to Ligand in BindingDB>
http://www.bindingdb.org/bind/chemsearch/marvin/MolStructure.jsp?monomerid=291968

> <Link to Ligand-Target Pair in BindingDB>
http://www.bindingdb.org/jsp/dbsearch/PrimarySearch_ki.jsp?energyterm=kJ/mole&tag=pol&polymerid=5809&target=ALK+tyrosine+kinase+receptor&column=ki&startPg=0&Increment=50&submit=Search

> <Link to Ligand-Target Pair in BindingDB>
http://www.bindingdb.org/jsp/dbsearch/PrimarySearch_ki.jsp?energyterm=kJ/mole&tag=r21&monomerid=291968&enzyme=ALK+tyrosine+kinase+receptor&column=ki&startPg=0&Increment=50&submit=Search

> <Ligand HET ID in PDB>


> <PDB ID(s) for Ligand-Target Complex>


> <PubChem CID>
134449942

> <PubChem SID>
381612267

> <ChEBI ID of Ligand>


> <ChEMBL ID of Ligand>


> <DrugBank ID of Ligand>


> <IUPHAR_GRAC ID of Ligand>


> <KEGG ID of Ligand>


> <ZINC ID of Ligand>


> <Number of Protein Chains in Target (>1 implies a multichain complex)>
1

> <BindingDB Target Chain Sequence>
MGAIGLLWLLPLLLSTAAVGSGMGTGQRAGSPAAGPPLQPREPLSYSRLQRKSLAVDFVVPSLFRVYARDLLLPPSSSELKAGRPEARGSLALDCAPLLRLLGPAPGVSWTAGSPAPAEARTLSRVLKGGSVRKLRRAKQLVLELGEEAILEGCVGPPGEAAVGLLQFNLSELFSWWIRQGEGRLRIRLMPEKKASEVGREGRLSAAIRASQPRLLFQIFGTGHSSLESPTNMPSPSPDYFTWNLTWIMKDSFPFLSHRSRYGLECSFDFPCELEYSPPLHDLRNQSWSWRRIPSEEASQMDLLDGPGAERSKEMPRGSFLLLNTSADSKHTILSPWMRSSSEHCTLAVSVHRHLQPSGRYIAQLLPHNEAAREILLMPTPGKHGWTVLQGRIGRPDNPFRVALEYISSGNRSLSAVDFFALKNCSEGTSPGSKMALQSSFTCWNGTVLQLGQACDFHQDCAQGEDESQMCRKLPVGFYCNFEDGFCGWTQGTLSPHTPQWQVRTLKDARFQDHQDHALLLSTTDVPASESATVTSATFPAPIKSSPCELRMSWLIRGVLRGNVSLVLVENKTGKEQGRMVWHVAAYEGLSLWQWMVLPLLDVSDRFWLQMVAWWGQGSRAIVAFDNISISLDCYLTISGEDKILQNTAPKSRNLFERNPNKELKPGENSPRQTPIFDPTVHWLFTTCGASGPHGPTQAQCNNAYQNSNLSVEVGSEGPLKGIQIWKVPATDTYSISGYGAAGGKGGKNTMMRSHGVSVLGIFNLEKDDMLYILVGQQGEDACPSTNQLIQKVCIGENNVIEEEIRVNRSVHEWAGGGGGGGGATYVFKMKDGVPVPLIIAAGGGGRAYGAKTDTFHPERLENNSSVLGLNGNSGAAGGGGGWNDNTSLLWAGKSLQEGATGGHSCPQAMKKWGWETRGGFGGGGGGCSSGGGGGGYIGGNAASNNDPEMDGEDGVSFISPLGILYTPALKVMEGHGEVNIKHYLNCSHCEVDECHMDPESHKVICFCDHGTVLAEDGVSCIVSPTPEPHLPLSLILSVVTSALVAALVLAFSGIMIVYRRKHQELQAMQMELQSPEYKLSKLRTSTIMTDYNPNYCFAGKTSSISDLKEVPRKNITLIRGLGHGAFGEVYEGQVSGMPNDPSPLQVAVKTLPEVCSEQDELDFLMEALIISKFNHQNIVRCIGVSLQSLPRFILLELMAGGDLKSFLRETRPRPSQPSSLAMLDLLHVARDIACGCQYLEENHFIHRDIAARNCLLTCPGPGRVAKIGDFGMARDIYRASYYRKGGCAMLPVKWMPPEAFMEGIFTSKTDTWSFGVLLWEIFSLGYMPYPSKSNQEVLEFVTSGGRMDPPKNCPGPVYRIMTQCWQHQPEDRPNFAIILERIEYCTQDPDVINTALPIEYGPLVEEEEKVPVRPKDPEGVPPLLVSQQAKREEERSPAAPPPLPTTSSGKAAKKPTAAEISVRVPRGPAVEGGHVNMAFSQSNPPSELHKVHGSRNKPTSLWNPTYGSWFTEKPTKKNNPIAKKEPHDRGNLGLEGSCTVPPNVATGRLPGASLLLEPSSLTANMKEVPLFRLRHFPCGNVNYGYQQQGLPLEAATAPGAGHYEDTILKSKNSMNQPGP

> <PDB ID(s) of Target Chain>
2XB7,2XBA,3AOX,5FTO,5FTQ,6E0R,6EBW,6EDL,6MX8

> <UniProt (SwissProt) Recommended Name of Target Chain>
ALK tyrosine kinase receptor

> <UniProt (SwissProt) Entry Name of Target Chain>
ALK_HUMAN

> <UniProt (SwissProt) Primary ID of Target Chain>
Q9UM73

> <UniProt (SwissProt) Secondary ID(s) of Target Chain>
Q4ZFX9,Q53QQ6,Q53RZ4,Q59FI3,Q9Y4K6

> <UniProt (SwissProt) Alternative ID(s) of Target Chain>


> <UniProt (TrEMBL) Submitted Name of Target Chain>


> <UniProt (TrEMBL) Entry Name of Target Chain>


> <UniProt (TrEMBL) Primary ID of Target Chain>


> <UniProt (TrEMBL) Secondary ID(s) of Target Chain>


> <UniProt (TrEMBL) Alternative ID(s) of Target Chain>


$$$$
00169001.cdx
  Mrv0541 02211919242D          

 38 40  0  0  0  0            999 V2000
   -2.2871   -0.3844    0.0000 C   0  0  0  0  0  0  0  0  0  0  0  0
   -3.0016   -0.7969    0.0000 C   0  0  0  0  0  0  0  0  0  0  0  0
   -3.0016   -1.6219    0.0000 C   0  0  0  0  0  0  0  0  0  0  0  0
   -2.2871   -2.0344    0.0000 N   0  0  0  0  0  0  0  0  0  0  0  0
   -1.5727   -1.6219    0.0000 C   0  0  0  0  0  0  0  0  0  0  0  0
   -1.5727   -0.7969    0.0000 N   0  0  0  0  0  0  0  0  0  0  0  0
   -3.7161   -0.3844    0.0000 Cl  0  0  0  0  0  0  0  0  0  0  0  0
   -0.1437   -1.6219    0.0000 C   0  0  0  0  0  0  0  0  0  0  0  0
   -0.1437   -0.7969    0.0000 C   0  0  0  0  0  0  0  0  0  0  0  0
    0.5708   -2.0344    0.0000 C   0  0  0  0  0  0  0  0  0  0  0  0
    1.2852   -1.6219    0.0000 C   0  0  0  0  0  0  0  0  0  0  0  0
    1.2852   -0.7969    0.0000 C   0  0  0  0  0  0  0  0  0  0  0  0
    0.5708   -0.3844    0.0000 C   0  0  0  0  0  0  0  0  0  0  0  0
    0.5708   -2.8594    0.0000 O   0  0  0  0  0  0  0  0  0  0  0  0
    0.5708    0.4406    0.0000 C   0  0  0  0  0  0  0  0  0  0  0  0
    1.2852    0.8531    0.0000 C   0  0  0  0  0  0  0  0  0  0  0  0
    1.2852   -3.2719    0.0000 C   0  0  0  0  0  0  0  0  0  0  0  0
    1.9997    0.4406    0.0000 N   0  0  0  0  0  0  0  0  0  0  0  0
   -0.8582   -2.0344    0.0000 N   0  0  0  0  0  0  0  0  0  0  0  0
    1.9997   -0.3844    0.0000 C   0  0  0  0  0  0  0  0  0  0  0  0
    2.7142   -0.7969    0.0000 C   0  0  0  0  0  0  0  0  0  0  0  0
    2.7142   -1.6219    0.0000 O   0  0  0  0  0  0  0  0  0  0  0  0
    2.7142    0.8531    0.0000 C   0  0  0  0  0  0  0  0  0  0  0  0
    3.4286    0.4406    0.0000 C   0  0  0  0  0  0  0  0  0  0  0  0
    4.1431    0.8531    0.0000 O   0  0  0  0  0  0  0  0  0  0  0  0
   -1.7038    1.0240    0.0000 C   0  0  0  0  0  0  0  0  0  0  0  0
   -0.9069    0.8104    0.0000 C   0  0  0  0  0  0  0  0  0  0  0  0
   -0.3235    1.3938    0.0000 C   0  0  0  0  0  0  0  0  0  0  0  0
   -0.5370    2.1907    0.0000 C   0  0  0  0  0  0  0  0  0  0  0  0
   -1.3339    2.4042    0.0000 C   0  0  0  0  0  0  0  0  0  0  0  0
   -1.9173    1.8209    0.0000 C   0  0  0  0  0  0  0  0  0  0  0  0
   -2.7142    2.0344    0.0000 S   0  0  0  0  0  0  0  0  0  0  0  0
   -2.5006    2.8313    0.0000 O   0  0  0  0  0  0  0  0  0  0  0  0
   -3.2975    1.4510    0.0000 O   0  0  0  0  0  0  0  0  0  0  0  0
   -3.4286    2.4469    0.0000 C   0  0  0  0  0  0  0  0  0  0  0  0
   -3.4286    3.2719    0.0000 C   0  0  0  0  0  0  0  0  0  0  0  0
   -4.1431    2.0344    0.0000 C   0  0  0  0  0  0  0  0  0  0  0  0
   -2.2871    0.4406    0.0000 N   0  0  0  0  0  0  0  0  0  0  0  0
 38  1  1  0  0  0  0
  1  2  4  0  0  0  0
  2  3  4  0  0  0  0
  3  4  4  0  0  0  0
  4  5  4  0  0  0  0
  5  6  4  0  0  0  0
  6  1  4  0  0  0  0
  2  7  1  0  0  0  0
 19  8  1  0  0  0  0
  8  9  4  0  0  0  0
  8 10  4  0  0  0  0
 10 11  4  0  0  0  0
 11 12  4  0  0  0  0
 12 13  4  0  0  0  0
 13  9  4  0  0  0  0
 10 14  1  0  0  0  0
 13 15  1  0  0  0  0
 15 16  1  0  0  0  0
 14 17  1  0  0  0  0
 16 18  1  0  0  0  0
  5 19  1  0  0  0  0
 18 20  1  0  0  0  0
 20 21  1  0  0  0  0
 21 22  1  0  0  0  0
 18 23  1  0  0  0  0
 23 24  1  0  0  0  0
 24 25  1  0  0  0  0
 26 27  4  0  0  0  0
 27 28  4  0  0  0  0
 28 29  4  0  0  0  0
 29 30  4  0  0  0  0
 30 31  4  0  0  0  0
 31 26  4  0  0  0  0
 31 32  1  0  0  0  0
 32 33  2  0  0  0  0
 32 34  2  0  0  0  0
 32 35  1  0  0  0  0
 35 36  1  0  0  0  0
 35 37  1  0  0  0  0
 26 38  1  0  0  0  0
M  END
> <From>
www.bindingDB.org

> <BindingDB Reactant_set_id>
556947

> <Ligand InChI>
InChI=1S/C26H34ClN5O5S/c1-18(2)38(35,36)24-7-5-4-6-21(24)29-25-20(27)17-28-26(31-25)30-22-16-19(8-9-23(22)37-3)10-11-32(12-14-33)13-15-34/h4-9,16-18,33-34H,10-15H2,1-3H3,(H2,28,29,30,31)

> <Ligand InChI Key>
YGVFNIQACNTVIV-UHFFFAOYSA-N

> <BindingDB MonomerID>
291969

> <BindingDB Ligand Name>
US10100019, Example 39

> <Target Name Assigned by Curator or DataSource>
ALK tyrosine kinase receptor

> <Target Source Organism According to Curator or DataSource>
Homo sapiens

> <Ki (nM)>


> <IC50 (nM)>
 40.0

> <Kd (nM)>


> <EC50 (nM)>


> <kon (M-1-s-1)>


> <koff (s-1)>


> <pH>


> <Temp C>
25.00

> <Curation/DataSource>
US Patent

> <Article DOI>
10.1016/j.bmcl.2006.04.076

> <PMID>


> <PubChem AID>


> <Patent Number>
US10100019

> <Authors>
Kim, P; Kim, HR; Cho, SY; Ha, JD; Jung, HJ; Yun, CS; Hwang, JY; Park, CH; Lee, CO; Ahn, S; Chae, CH

> <Institution>
Korea Research Institute of Chemical Technology

> <Link to Ligand in BindingDB>
http://www.bindingdb.org/bind/chemsearch/marvin/MolStructure.jsp?monomerid=291969

> <Link to Ligand-Target Pair in BindingDB>
http://www.bindingdb.org/jsp/dbsearch/PrimarySearch_ki.jsp?energyterm=kJ/mole&tag=pol&polymerid=5809&target=ALK+tyrosine+kinase+receptor&column=ki&startPg=0&Increment=50&submit=Search

> <Link to Ligand-Target Pair in BindingDB>
http://www.bindingdb.org/jsp/dbsearch/PrimarySearch_ki.jsp?energyterm=kJ/mole&tag=r21&monomerid=291969&enzyme=ALK+tyrosine+kinase+receptor&column=ki&startPg=0&Increment=50&submit=Search

> <Ligand HET ID in PDB>


> <PDB ID(s) for Ligand-Target Complex>


> <PubChem CID>
134449944

> <PubChem SID>
381612268

> <ChEBI ID of Ligand>


> <ChEMBL ID of Ligand>


> <DrugBank ID of Ligand>


> <IUPHAR_GRAC ID of Ligand>


> <KEGG ID of Ligand>


> <ZINC ID of Ligand>


> <Number of Protein Chains in Target (>1 implies a multichain complex)>
1

> <BindingDB Target Chain Sequence>
MGAIGLLWLLPLLLSTAAVGSGMGTGQRAGSPAAGPPLQPREPLSYSRLQRKSLAVDFVVPSLFRVYARDLLLPPSSSELKAGRPEARGSLALDCAPLLRLLGPAPGVSWTAGSPAPAEARTLSRVLKGGSVRKLRRAKQLVLELGEEAILEGCVGPPGEAAVGLLQFNLSELFSWWIRQGEGRLRIRLMPEKKASEVGREGRLSAAIRASQPRLLFQIFGTGHSSLESPTNMPSPSPDYFTWNLTWIMKDSFPFLSHRSRYGLECSFDFPCELEYSPPLHDLRNQSWSWRRIPSEEASQMDLLDGPGAERSKEMPRGSFLLLNTSADSKHTILSPWMRSSSEHCTLAVSVHRHLQPSGRYIAQLLPHNEAAREILLMPTPGKHGWTVLQGRIGRPDNPFRVALEYISSGNRSLSAVDFFALKNCSEGTSPGSKMALQSSFTCWNGTVLQLGQACDFHQDCAQGEDESQMCRKLPVGFYCNFEDGFCGWTQGTLSPHTPQWQVRTLKDARFQDHQDHALLLSTTDVPASESATVTSATFPAPIKSSPCELRMSWLIRGVLRGNVSLVLVENKTGKEQGRMVWHVAAYEGLSLWQWMVLPLLDVSDRFWLQMVAWWGQGSRAIVAFDNISISLDCYLTISGEDKILQNTAPKSRNLFERNPNKELKPGENSPRQTPIFDPTVHWLFTTCGASGPHGPTQAQCNNAYQNSNLSVEVGSEGPLKGIQIWKVPATDTYSISGYGAAGGKGGKNTMMRSHGVSVLGIFNLEKDDMLYILVGQQGEDACPSTNQLIQKVCIGENNVIEEEIRVNRSVHEWAGGGGGGGGATYVFKMKDGVPVPLIIAAGGGGRAYGAKTDTFHPERLENNSSVLGLNGNSGAAGGGGGWNDNTSLLWAGKSLQEGATGGHSCPQAMKKWGWETRGGFGGGGGGCSSGGGGGGYIGGNAASNNDPEMDGEDGVSFISPLGILYTPALKVMEGHGEVNIKHYLNCSHCEVDECHMDPESHKVICFCDHGTVLAEDGVSCIVSPTPEPHLPLSLILSVVTSALVAALVLAFSGIMIVYRRKHQELQAMQMELQSPEYKLSKLRTSTIMTDYNPNYCFAGKTSSISDLKEVPRKNITLIRGLGHGAFGEVYEGQVSGMPNDPSPLQVAVKTLPEVCSEQDELDFLMEALIISKFNHQNIVRCIGVSLQSLPRFILLELMAGGDLKSFLRETRPRPSQPSSLAMLDLLHVARDIACGCQYLEENHFIHRDIAARNCLLTCPGPGRVAKIGDFGMARDIYRASYYRKGGCAMLPVKWMPPEAFMEGIFTSKTDTWSFGVLLWEIFSLGYMPYPSKSNQEVLEFVTSGGRMDPPKNCPGPVYRIMTQCWQHQPEDRPNFAIILERIEYCTQDPDVINTALPIEYGPLVEEEEKVPVRPKDPEGVPPLLVSQQAKREEERSPAAPPPLPTTSSGKAAKKPTAAEISVRVPRGPAVEGGHVNMAFSQSNPPSELHKVHGSRNKPTSLWNPTYGSWFTEKPTKKNNPIAKKEPHDRGNLGLEGSCTVPPNVATGRLPGASLLLEPSSLTANMKEVPLFRLRHFPCGNVNYGYQQQGLPLEAATAPGAGHYEDTILKSKNSMNQPGP

> <PDB ID(s) of Target Chain>
2XB7,2XBA,3AOX,5FTO,5FTQ,6E0R,6EBW,6EDL,6MX8

> <UniProt (SwissProt) Recommended Name of Target Chain>
ALK tyrosine kinase receptor

> <UniProt (SwissProt) Entry Name of Target Chain>
ALK_HUMAN

> <UniProt (SwissProt) Primary ID of Target Chain>
Q9UM73

> <UniProt (SwissProt) Secondary ID(s) of Target Chain>
Q4ZFX9,Q53QQ6,Q53RZ4,Q59FI3,Q9Y4K6

> <UniProt (SwissProt) Alternative ID(s) of Target Chain>


> <UniProt (TrEMBL) Submitted Name of Target Chain>


> <UniProt (TrEMBL) Entry Name of Target Chain>


> <UniProt (TrEMBL) Primary ID of Target Chain>


> <UniProt (TrEMBL) Secondary ID(s) of Target Chain>


> <UniProt (TrEMBL) Alternative ID(s) of Target Chain>


$$$$
00174001.cdx
  Mrv0541 02211919242D          

 39 41  0  0  0  0            999 V2000
   -1.6488   -0.5476    0.0000 C   0  0  0  0  0  0  0  0  0  0  0  0
   -2.3633   -0.9601    0.0000 C   0  0  0  0  0  0  0  0  0  0  0  0
   -2.3633   -1.7851    0.0000 C   0  0  0  0  0  0  0  0  0  0  0  0
   -1.6488   -2.1976    0.0000 N   0  0  0  0  0  0  0  0  0  0  0  0
   -0.9343   -1.7851    0.0000 C   0  0  0  0  0  0  0  0  0  0  0  0
   -0.9343   -0.9601    0.0000 N   0  0  0  0  0  0  0  0  0  0  0  0
   -3.0777   -0.5476    0.0000 Cl  0  0  0  0  0  0  0  0  0  0  0  0
    0.4946   -1.7851    0.0000 C   0  0  0  0  0  0  0  0  0  0  0  0
    0.4946   -0.9601    0.0000 C   0  0  0  0  0  0  0  0  0  0  0  0
    1.2091   -2.1976    0.0000 C   0  0  0  0  0  0  0  0  0  0  0  0
    1.9236   -1.7851    0.0000 C   0  0  0  0  0  0  0  0  0  0  0  0
    1.9236   -0.9601    0.0000 C   0  0  0  0  0  0  0  0  0  0  0  0
    1.2091   -0.5476    0.0000 C   0  0  0  0  0  0  0  0  0  0  0  0
    1.2091   -3.0226    0.0000 O   0  0  0  0  0  0  0  0  0  0  0  0
    1.2091    0.2774    0.0000 C   0  0  0  0  0  0  0  0  0  0  0  0
    0.4946    0.6899    0.0000 C   0  0  0  0  0  0  0  0  0  0  0  0
    1.9236   -3.4351    0.0000 C   0  0  0  0  0  0  0  0  0  0  0  0
   -0.2198   -2.1976    0.0000 N   0  0  0  0  0  0  0  0  0  0  0  0
   -2.3633    0.6899    0.0000 C   0  0  0  0  0  0  0  0  0  0  0  0
   -1.6488    0.2774    0.0000 N   0  0  0  0  0  0  0  0  0  0  0  0
   -3.0777    0.2774    0.0000 C   0  0  0  0  0  0  0  0  0  0  0  0
   -3.7922    0.6899    0.0000 C   0  0  0  0  0  0  0  0  0  0  0  0
   -3.7922    1.5149    0.0000 C   0  0  0  0  0  0  0  0  0  0  0  0
   -3.0777    1.9274    0.0000 C   0  0  0  0  0  0  0  0  0  0  0  0
   -2.3633    1.5149    0.0000 C   0  0  0  0  0  0  0  0  0  0  0  0
   -1.6488    1.9274    0.0000 S   0  0  0  0  0  0  0  0  0  0  0  0
   -2.0613    2.6419    0.0000 O   0  0  0  0  0  0  0  0  0  0  0  0
   -1.2363    1.2129    0.0000 O   0  0  0  0  0  0  0  0  0  0  0  0
   -0.9343    2.3399    0.0000 C   0  0  0  0  0  0  0  0  0  0  0  0
   -0.9343    3.1649    0.0000 C   0  0  0  0  0  0  0  0  0  0  0  0
   -0.2198    1.9274    0.0000 C   0  0  0  0  0  0  0  0  0  0  0  0
    0.4946    1.5149    0.0000 C   0  0  0  0  0  0  0  0  0  0  0  0
    1.2091    1.9274    0.0000 N   0  0  0  0  0  0  0  0  0  0  0  0
    1.9236    1.5149    0.0000 C   0  0  0  0  0  0  0  0  0  0  0  0
    1.9236    0.6899    0.0000 O   0  0  0  0  0  0  0  0  0  0  0  0
    2.6380    1.9274    0.0000 C   0  0  0  0  0  0  0  0  0  0  0  0
    3.3525    2.3399    0.0000 F   0  0  0  0  0  0  0  0  0  0  0  0
    3.0505    1.2129    0.0000 F   0  0  0  0  0  0  0  0  0  0  0  0
    2.2255    2.6419    0.0000 F   0  0  0  0  0  0  0  0  0  0  0  0
 20  1  1  0  0  0  0
  1  2  4  0  0  0  0
  2  3  4  0  0  0  0
  3  4  4  0  0  0  0
  4  5  4  0  0  0  0
  5  6  4  0  0  0  0
  6  1  4  0  0  0  0
  2  7  1  0  0  0  0
 18  8  1  0  0  0  0
  8  9  4  0  0  0  0
  8 10  4  0  0  0  0
 10 11  4  0  0  0  0
 11 12  4  0  0  0  0
 12 13  4  0  0  0  0
 13  9  4  0  0  0  0
 10 14  1  0  0  0  0
 13 15  1  0  0  0  0
 15 16  1  0  0  0  0
 14 17  1  0  0  0  0
  5 18  1  0  0  0  0
 19 20  1  0  0  0  0
 19 21  4  0  0  0  0
 21 22  4  0  0  0  0
 22 23  4  0  0  0  0
 23 24  4  0  0  0  0
 24 25  4  0  0  0  0
 25 19  4  0  0  0  0
 25 26  1  0  0  0  0
 26 27  2  0  0  0  0
 26 28  2  0  0  0  0
 26 29  1  0  0  0  0
 29 30  1  0  0  0  0
 29 31  1  0  0  0  0
 16 32  1  0  0  0  0
 32 33  1  0  0  0  0
 33 34  1  0  0  0  0
 34 35  2  0  0  0  0
 34 36  1  0  0  0  0
 36 37  1  0  0  0  0
 36 38  1  0  0  0  0
 36 39  1  0  0  0  0
M  END
> <From>
www.bindingDB.org

> <BindingDB Reactant_set_id>
556948

> <Ligand InChI>
InChI=1S/C25H27ClF3N5O4S/c1-15(2)39(36,37)21-9-5-4-8-18(21)32-22-17(26)14-31-24(34-22)33-19-13-16(10-11-20(19)38-3)7-6-12-30-23(35)25(27,28)29/h4-5,8-11,13-15H,6-7,12H2,1-3H3,(H,30,35)(H2,31,32,33,34)

> <Ligand InChI Key>
ATIHNCGTGIFPNR-UHFFFAOYSA-N

> <BindingDB MonomerID>
291970

> <BindingDB Ligand Name>
US10100019, Example 40

> <Target Name Assigned by Curator or DataSource>
ALK tyrosine kinase receptor

> <Target Source Organism According to Curator or DataSource>
Homo sapiens

> <Ki (nM)>


> <IC50 (nM)>
 200

> <Kd (nM)>


> <EC50 (nM)>


> <kon (M-1-s-1)>


> <koff (s-1)>


> <pH>


> <Temp C>
25.00

> <Curation/DataSource>
US Patent

> <Article DOI>
10.1016/j.bmcl.2006.04.076

> <PMID>


> <PubChem AID>


> <Patent Number>
US10100019

> <Authors>
Kim, P; Kim, HR; Cho, SY; Ha, JD; Jung, HJ; Yun, CS; Hwang, JY; Park, CH; Lee, CO; Ahn, S; Chae, CH

> <Institution>
Korea Research Institute of Chemical Technology

> <Link to Ligand in BindingDB>
http://www.bindingdb.org/bind/chemsearch/marvin/MolStructure.jsp?monomerid=291970

> <Link to Ligand-Target Pair in BindingDB>
http://www.bindingdb.org/jsp/dbsearch/PrimarySearch_ki.jsp?energyterm=kJ/mole&tag=pol&polymerid=5809&target=ALK+tyrosine+kinase+receptor&column=ki&startPg=0&Increment=50&submit=Search

> <Link to Ligand-Target Pair in BindingDB>
http://www.bindingdb.org/jsp/dbsearch/PrimarySearch_ki.jsp?energyterm=kJ/mole&tag=r21&monomerid=291970&enzyme=ALK+tyrosine+kinase+receptor&column=ki&startPg=0&Increment=50&submit=Search

> <Ligand HET ID in PDB>


> <PDB ID(s) for Ligand-Target Complex>


> <PubChem CID>
122629193

> <PubChem SID>
381612269

> <ChEBI ID of Ligand>


> <ChEMBL ID of Ligand>


> <DrugBank ID of Ligand>


> <IUPHAR_GRAC ID of Ligand>


> <KEGG ID of Ligand>


> <ZINC ID of Ligand>


> <Number of Protein Chains in Target (>1 implies a multichain complex)>
1

> <BindingDB Target Chain Sequence>
MGAIGLLWLLPLLLSTAAVGSGMGTGQRAGSPAAGPPLQPREPLSYSRLQRKSLAVDFVVPSLFRVYARDLLLPPSSSELKAGRPEARGSLALDCAPLLRLLGPAPGVSWTAGSPAPAEARTLSRVLKGGSVRKLRRAKQLVLELGEEAILEGCVGPPGEAAVGLLQFNLSELFSWWIRQGEGRLRIRLMPEKKASEVGREGRLSAAIRASQPRLLFQIFGTGHSSLESPTNMPSPSPDYFTWNLTWIMKDSFPFLSHRSRYGLECSFDFPCELEYSPPLHDLRNQSWSWRRIPSEEASQMDLLDGPGAERSKEMPRGSFLLLNTSADSKHTILSPWMRSSSEHCTLAVSVHRHLQPSGRYIAQLLPHNEAAREILLMPTPGKHGWTVLQGRIGRPDNPFRVALEYISSGNRSLSAVDFFALKNCSEGTSPGSKMALQSSFTCWNGTVLQLGQACDFHQDCAQGEDESQMCRKLPVGFYCNFEDGFCGWTQGTLSPHTPQWQVRTLKDARFQDHQDHALLLSTTDVPASESATVTSATFPAPIKSSPCELRMSWLIRGVLRGNVSLVLVENKTGKEQGRMVWHVAAYEGLSLWQWMVLPLLDVSDRFWLQMVAWWGQGSRAIVAFDNISISLDCYLTISGEDKILQNTAPKSRNLFERNPNKELKPGENSPRQTPIFDPTVHWLFTTCGASGPHGPTQAQCNNAYQNSNLSVEVGSEGPLKGIQIWKVPATDTYSISGYGAAGGKGGKNTMMRSHGVSVLGIFNLEKDDMLYILVGQQGEDACPSTNQLIQKVCIGENNVIEEEIRVNRSVHEWAGGGGGGGGATYVFKMKDGVPVPLIIAAGGGGRAYGAKTDTFHPERLENNSSVLGLNGNSGAAGGGGGWNDNTSLLWAGKSLQEGATGGHSCPQAMKKWGWETRGGFGGGGGGCSSGGGGGGYIGGNAASNNDPEMDGEDGVSFISPLGILYTPALKVMEGHGEVNIKHYLNCSHCEVDECHMDPESHKVICFCDHGTVLAEDGVSCIVSPTPEPHLPLSLILSVVTSALVAALVLAFSGIMIVYRRKHQELQAMQMELQSPEYKLSKLRTSTIMTDYNPNYCFAGKTSSISDLKEVPRKNITLIRGLGHGAFGEVYEGQVSGMPNDPSPLQVAVKTLPEVCSEQDELDFLMEALIISKFNHQNIVRCIGVSLQSLPRFILLELMAGGDLKSFLRETRPRPSQPSSLAMLDLLHVARDIACGCQYLEENHFIHRDIAARNCLLTCPGPGRVAKIGDFGMARDIYRASYYRKGGCAMLPVKWMPPEAFMEGIFTSKTDTWSFGVLLWEIFSLGYMPYPSKSNQEVLEFVTSGGRMDPPKNCPGPVYRIMTQCWQHQPEDRPNFAIILERIEYCTQDPDVINTALPIEYGPLVEEEEKVPVRPKDPEGVPPLLVSQQAKREEERSPAAPPPLPTTSSGKAAKKPTAAEISVRVPRGPAVEGGHVNMAFSQSNPPSELHKVHGSRNKPTSLWNPTYGSWFTEKPTKKNNPIAKKEPHDRGNLGLEGSCTVPPNVATGRLPGASLLLEPSSLTANMKEVPLFRLRHFPCGNVNYGYQQQGLPLEAATAPGAGHYEDTILKSKNSMNQPGP

> <PDB ID(s) of Target Chain>
2XB7,2XBA,3AOX,5FTO,5FTQ,6E0R,6EBW,6EDL,6MX8

> <UniProt (SwissProt) Recommended Name of Target Chain>
ALK tyrosine kinase receptor

> <UniProt (SwissProt) Entry Name of Target Chain>
ALK_HUMAN

> <UniProt (SwissProt) Primary ID of Target Chain>
Q9UM73

> <UniProt (SwissProt) Secondary ID(s) of Target Chain>
Q4ZFX9,Q53QQ6,Q53RZ4,Q59FI3,Q9Y4K6

> <UniProt (SwissProt) Alternative ID(s) of Target Chain>


> <UniProt (TrEMBL) Submitted Name of Target Chain>


> <UniProt (TrEMBL) Entry Name of Target Chain>


> <UniProt (TrEMBL) Primary ID of Target Chain>


> <UniProt (TrEMBL) Secondary ID(s) of Target Chain>


> <UniProt (TrEMBL) Alternative ID(s) of Target Chain>


$$$$
00175001.cdx
  Mrv0541 02211919242D          

 33 35  0  0  0  0            999 V2000
   -1.4289   -0.4125    0.0000 C   0  0  0  0  0  0  0  0  0  0  0  0
   -2.1434   -0.8250    0.0000 C   0  0  0  0  0  0  0  0  0  0  0  0
   -2.1434   -1.6500    0.0000 C   0  0  0  0  0  0  0  0  0  0  0  0
   -1.4289   -2.0625    0.0000 N   0  0  0  0  0  0  0  0  0  0  0  0
   -0.7145   -1.6500    0.0000 C   0  0  0  0  0  0  0  0  0  0  0  0
   -0.7145   -0.8250    0.0000 N   0  0  0  0  0  0  0  0  0  0  0  0
   -2.8579   -0.4125    0.0000 Cl  0  0  0  0  0  0  0  0  0  0  0  0
    0.0000   -2.0625    0.0000 N   0  0  0  0  0  0  0  0  0  0  0  0
   -0.7145    1.6500    0.0000 C   0  0  0  0  0  0  0  0  0  0  0  0
   -0.7145    0.8250    0.0000 C   0  0  0  0  0  0  0  0  0  0  0  0
    0.0000    0.4125    0.0000 C   0  0  0  0  0  0  0  0  0  0  0  0
    0.7145    0.8250    0.0000 C   0  0  0  0  0  0  0  0  0  0  0  0
    0.7145    1.6500    0.0000 C   0  0  0  0  0  0  0  0  0  0  0  0
    0.0000    2.0625    0.0000 C   0  0  0  0  0  0  0  0  0  0  0  0
   -1.4289    2.0625    0.0000 S   0  0  0  0  0  0  0  0  0  0  0  0
   -1.0164    2.7770    0.0000 O   0  0  0  0  0  0  0  0  0  0  0  0
   -1.8414    1.3480    0.0000 O   0  0  0  0  0  0  0  0  0  0  0  0
   -2.1434    2.4750    0.0000 C   0  0  0  0  0  0  0  0  0  0  0  0
   -2.1434    3.3000    0.0000 C   0  0  0  0  0  0  0  0  0  0  0  0
   -2.8579    2.0625    0.0000 C   0  0  0  0  0  0  0  0  0  0  0  0
   -1.4289    0.4125    0.0000 N   0  0  0  0  0  0  0  0  0  0  0  0
    0.7145   -1.6500    0.0000 C   0  0  0  0  0  0  0  0  0  0  0  0
    0.7145   -0.8250    0.0000 C   0  0  0  0  0  0  0  0  0  0  0  0
    1.4289   -2.0625    0.0000 C   0  0  0  0  0  0  0  0  0  0  0  0
    2.1434   -1.6500    0.0000 C   0  0  0  0  0  0  0  0  0  0  0  0
    2.1434   -0.8250    0.0000 C   0  0  0  0  0  0  0  0  0  0  0  0
    1.4289   -0.4125    0.0000 C   0  0  0  0  0  0  0  0  0  0  0  0
    1.4289    0.4125    0.0000 C   0  0  0  0  0  0  0  0  0  0  0  0
    2.1434    0.8250    0.0000 C   0  0  0  0  0  0  0  0  0  0  0  0
    2.1434    1.6500    0.0000 C   0  0  0  0  0  0  0  0  0  0  0  0
    2.8579    2.0625    0.0000 N   0  0  0  0  0  0  0  0  0  0  0  0
    1.4289   -2.8875    0.0000 O   0  0  0  0  0  0  0  0  0  0  0  0
    2.1434   -3.3000    0.0000 C   0  0  0  0  0  0  0  0  0  0  0  0
 21  1  1  0  0  0  0
  1  2  4  0  0  0  0
  2  3  4  0  0  0  0
  3  4  4  0  0  0  0
  4  5  4  0  0  0  0
  5  6  4  0  0  0  0
  6  1  4  0  0  0  0
  2  7  1  0  0  0  0
  5  8  1  0  0  0  0
  9 10  4  0  0  0  0
 10 11  4  0  0  0  0
 11 12  4  0  0  0  0
 12 13  4  0  0  0  0
 13 14  4  0  0  0  0
 14  9  4  0  0  0  0
  9 15  1  0  0  0  0
 15 16  2  0  0  0  0
 15 17  2  0  0  0  0
 15 18  1  0  0  0  0
 18 19  1  0  0  0  0
 18 20  1  0  0  0  0
 10 21  1  0  0  0  0
  8 22  1  0  0  0  0
 22 23  4  0  0  0  0
 22 24  4  0  0  0  0
 24 25  4  0  0  0  0
 25 26  4  0  0  0  0
 26 27  4  0  0  0  0
 27 23  4  0  0  0  0
 27 28  1  0  0  0  0
 28 29  1  0  0  0  0
 29 30  1  0  0  0  0
 30 31  1  0  0  0  0
 24 32  1  0  0  0  0
 32 33  1  0  0  0  0
M  END
> <From>
www.bindingDB.org

> <BindingDB Reactant_set_id>
556949

> <Ligand InChI>
InChI=1S/C23H28ClN5O3S/c1-15(2)33(30,31)21-9-5-4-8-18(21)27-22-17(24)14-26-23(29-22)28-19-13-16(7-6-12-25)10-11-20(19)32-3/h4-5,8-11,13-15H,6-7,12,25H2,1-3H3,(H2,26,27,28,29)

> <Ligand InChI Key>
ZWDPQPKCKRVHBW-UHFFFAOYSA-N

> <BindingDB MonomerID>
291971

> <BindingDB Ligand Name>
US10100019, Example 41

> <Target Name Assigned by Curator or DataSource>
ALK tyrosine kinase receptor

> <Target Source Organism According to Curator or DataSource>
Homo sapiens

> <Ki (nM)>


> <IC50 (nM)>
 3.10

> <Kd (nM)>


> <EC50 (nM)>


> <kon (M-1-s-1)>


> <koff (s-1)>


> <pH>


> <Temp C>
25.00

> <Curation/DataSource>
US Patent

> <Article DOI>
10.1016/j.bmcl.2006.04.076

> <PMID>


> <PubChem AID>


> <Patent Number>
US10100019

> <Authors>
Kim, P; Kim, HR; Cho, SY; Ha, JD; Jung, HJ; Yun, CS; Hwang, JY; Park, CH; Lee, CO; Ahn, S; Chae, CH

> <Institution>
Korea Research Institute of Chemical Technology

> <Link to Ligand in BindingDB>
http://www.bindingdb.org/bind/chemsearch/marvin/MolStructure.jsp?monomerid=291971

> <Link to Ligand-Target Pair in BindingDB>
http://www.bindingdb.org/jsp/dbsearch/PrimarySearch_ki.jsp?energyterm=kJ/mole&tag=pol&polymerid=5809&target=ALK+tyrosine+kinase+receptor&column=ki&startPg=0&Increment=50&submit=Search

> <Link to Ligand-Target Pair in BindingDB>
http://www.bindingdb.org/jsp/dbsearch/PrimarySearch_ki.jsp?energyterm=kJ/mole&tag=r21&monomerid=291971&enzyme=ALK+tyrosine+kinase+receptor&column=ki&startPg=0&Increment=50&submit=Search

> <Ligand HET ID in PDB>


> <PDB ID(s) for Ligand-Target Complex>


> <PubChem CID>
122629190

> <PubChem SID>
381612270

> <ChEBI ID of Ligand>


> <ChEMBL ID of Ligand>


> <DrugBank ID of Ligand>


> <IUPHAR_GRAC ID of Ligand>


> <KEGG ID of Ligand>


> <ZINC ID of Ligand>


> <Number of Protein Chains in Target (>1 implies a multichain complex)>
1

> <BindingDB Target Chain Sequence>
MGAIGLLWLLPLLLSTAAVGSGMGTGQRAGSPAAGPPLQPREPLSYSRLQRKSLAVDFVVPSLFRVYARDLLLPPSSSELKAGRPEARGSLALDCAPLLRLLGPAPGVSWTAGSPAPAEARTLSRVLKGGSVRKLRRAKQLVLELGEEAILEGCVGPPGEAAVGLLQFNLSELFSWWIRQGEGRLRIRLMPEKKASEVGREGRLSAAIRASQPRLLFQIFGTGHSSLESPTNMPSPSPDYFTWNLTWIMKDSFPFLSHRSRYGLECSFDFPCELEYSPPLHDLRNQSWSWRRIPSEEASQMDLLDGPGAERSKEMPRGSFLLLNTSADSKHTILSPWMRSSSEHCTLAVSVHRHLQPSGRYIAQLLPHNEAAREILLMPTPGKHGWTVLQGRIGRPDNPFRVALEYISSGNRSLSAVDFFALKNCSEGTSPGSKMALQSSFTCWNGTVLQLGQACDFHQDCAQGEDESQMCRKLPVGFYCNFEDGFCGWTQGTLSPHTPQWQVRTLKDARFQDHQDHALLLSTTDVPASESATVTSATFPAPIKSSPCELRMSWLIRGVLRGNVSLVLVENKTGKEQGRMVWHVAAYEGLSLWQWMVLPLLDVSDRFWLQMVAWWGQGSRAIVAFDNISISLDCYLTISGEDKILQNTAPKSRNLFERNPNKELKPGENSPRQTPIFDPTVHWLFTTCGASGPHGPTQAQCNNAYQNSNLSVEVGSEGPLKGIQIWKVPATDTYSISGYGAAGGKGGKNTMMRSHGVSVLGIFNLEKDDMLYILVGQQGEDACPSTNQLIQKVCIGENNVIEEEIRVNRSVHEWAGGGGGGGGATYVFKMKDGVPVPLIIAAGGGGRAYGAKTDTFHPERLENNSSVLGLNGNSGAAGGGGGWNDNTSLLWAGKSLQEGATGGHSCPQAMKKWGWETRGGFGGGGGGCSSGGGGGGYIGGNAASNNDPEMDGEDGVSFISPLGILYTPALKVMEGHGEVNIKHYLNCSHCEVDECHMDPESHKVICFCDHGTVLAEDGVSCIVSPTPEPHLPLSLILSVVTSALVAALVLAFSGIMIVYRRKHQELQAMQMELQSPEYKLSKLRTSTIMTDYNPNYCFAGKTSSISDLKEVPRKNITLIRGLGHGAFGEVYEGQVSGMPNDPSPLQVAVKTLPEVCSEQDELDFLMEALIISKFNHQNIVRCIGVSLQSLPRFILLELMAGGDLKSFLRETRPRPSQPSSLAMLDLLHVARDIACGCQYLEENHFIHRDIAARNCLLTCPGPGRVAKIGDFGMARDIYRASYYRKGGCAMLPVKWMPPEAFMEGIFTSKTDTWSFGVLLWEIFSLGYMPYPSKSNQEVLEFVTSGGRMDPPKNCPGPVYRIMTQCWQHQPEDRPNFAIILERIEYCTQDPDVINTALPIEYGPLVEEEEKVPVRPKDPEGVPPLLVSQQAKREEERSPAAPPPLPTTSSGKAAKKPTAAEISVRVPRGPAVEGGHVNMAFSQSNPPSELHKVHGSRNKPTSLWNPTYGSWFTEKPTKKNNPIAKKEPHDRGNLGLEGSCTVPPNVATGRLPGASLLLEPSSLTANMKEVPLFRLRHFPCGNVNYGYQQQGLPLEAATAPGAGHYEDTILKSKNSMNQPGP

> <PDB ID(s) of Target Chain>
2XB7,2XBA,3AOX,5FTO,5FTQ,6E0R,6EBW,6EDL,6MX8

> <UniProt (SwissProt) Recommended Name of Target Chain>
ALK tyrosine kinase receptor

> <UniProt (SwissProt) Entry Name of Target Chain>
ALK_HUMAN

> <UniProt (SwissProt) Primary ID of Target Chain>
Q9UM73

> <UniProt (SwissProt) Secondary ID(s) of Target Chain>
Q4ZFX9,Q53QQ6,Q53RZ4,Q59FI3,Q9Y4K6

> <UniProt (SwissProt) Alternative ID(s) of Target Chain>


> <UniProt (TrEMBL) Submitted Name of Target Chain>


> <UniProt (TrEMBL) Entry Name of Target Chain>


> <UniProt (TrEMBL) Primary ID of Target Chain>


> <UniProt (TrEMBL) Secondary ID(s) of Target Chain>


> <UniProt (TrEMBL) Alternative ID(s) of Target Chain>


$$$$
00180001.cdx
  Mrv0541 02211919242D          

 33 35  0  0  0  0            999 V2000
   -1.7862    1.8563    0.0000 C   0  0  0  0  0  0  0  0  0  0  0  0
   -1.7862    1.0313    0.0000 C   0  0  0  0  0  0  0  0  0  0  0  0
   -2.5006    0.6187    0.0000 C   0  0  0  0  0  0  0  0  0  0  0  0
   -3.2151    1.0313    0.0000 C   0  0  0  0  0  0  0  0  0  0  0  0
   -3.2151    1.8563    0.0000 C   0  0  0  0  0  0  0  0  0  0  0  0
   -2.5006    2.2687    0.0000 C   0  0  0  0  0  0  0  0  0  0  0  0
   -1.0717    2.2687    0.0000 S   0  0  0  0  0  0  0  0  0  0  0  0
   -1.0717    3.0938    0.0000 O   0  0  0  0  0  0  0  0  0  0  0  0
   -0.3572    2.6812    0.0000 O   0  0  0  0  0  0  0  0  0  0  0  0
   -1.0717    0.6187    0.0000 N   0  0  0  0  0  0  0  0  0  0  0  0
   -1.0717   -0.2062    0.0000 C   0  0  0  0  0  0  0  0  0  0  0  0
   -1.7862   -0.6187    0.0000 C   0  0  0  0  0  0  0  0  0  0  0  0
   -1.7862   -1.4437    0.0000 C   0  0  0  0  0  0  0  0  0  0  0  0
   -1.0717   -1.8563    0.0000 N   0  0  0  0  0  0  0  0  0  0  0  0
   -0.3572   -1.4437    0.0000 C   0  0  0  0  0  0  0  0  0  0  0  0
   -0.3572   -0.6187    0.0000 N   0  0  0  0  0  0  0  0  0  0  0  0
   -2.5006   -0.2062    0.0000 Cl  0  0  0  0  0  0  0  0  0  0  0  0
    0.3572   -1.8563    0.0000 N   0  0  0  0  0  0  0  0  0  0  0  0
    1.0717   -1.4437    0.0000 C   0  0  0  0  0  0  0  0  0  0  0  0
    1.0717   -0.6187    0.0000 C   0  0  0  0  0  0  0  0  0  0  0  0
    1.7862   -1.8563    0.0000 C   0  0  0  0  0  0  0  0  0  0  0  0
    2.5006   -1.4437    0.0000 C   0  0  0  0  0  0  0  0  0  0  0  0
    2.5006   -0.6187    0.0000 C   0  0  0  0  0  0  0  0  0  0  0  0
    1.7862   -0.2062    0.0000 C   0  0  0  0  0  0  0  0  0  0  0  0
    1.7862   -2.6812    0.0000 O   0  0  0  0  0  0  0  0  0  0  0  0
    1.7862    0.6187    0.0000 C   0  0  0  0  0  0  0  0  0  0  0  0
    2.5006    1.0313    0.0000 C   0  0  0  0  0  0  0  0  0  0  0  0
    3.2151    0.6187    0.0000 O   0  0  0  0  0  0  0  0  0  0  0  0
   -0.3572    1.8563    0.0000 C   0  0  0  0  0  0  0  0  0  0  0  0
    0.3572    2.2687    0.0000 C   0  0  0  0  0  0  0  0  0  0  0  0
   -0.1437    1.0594    0.0000 C   0  0  0  0  0  0  0  0  0  0  0  0
    2.5006    1.8563    0.0000 N   0  0  0  0  0  0  0  0  0  0  0  0
    1.0717   -3.0938    0.0000 C   0  0  0  0  0  0  0  0  0  0  0  0
  1  2  4  0  0  0  0
  2  3  4  0  0  0  0
  3  4  4  0  0  0  0
  4  5  4  0  0  0  0
  5  6  4  0  0  0  0
  6  1  4  0  0  0  0
  1  7  1  0  0  0  0
  7  8  2  0  0  0  0
  7  9  2  0  0  0  0
  2 10  1  0  0  0  0
 10 11  1  0  0  0  0
 11 12  4  0  0  0  0
 12 13  4  0  0  0  0
 13 14  4  0  0  0  0
 14 15  4  0  0  0  0
 15 16  4  0  0  0  0
 16 11  4  0  0  0  0
 12 17  1  0  0  0  0
 15 18  1  0  0  0  0
 18 19  1  0  0  0  0
 19 20  4  0  0  0  0
 19 21  4  0  0  0  0
 21 22  4  0  0  0  0
 22 23  4  0  0  0  0
 23 24  4  0  0  0  0
 24 20  4  0  0  0  0
 21 25  1  0  0  0  0
 24 26  1  0  0  0  0
 26 27  1  0  0  0  0
 27 28  2  0  0  0  0
  7 29  1  0  0  0  0
 29 30  1  0  0  0  0
 29 31  1  0  0  0  0
 27 32  1  0  0  0  0
 25 33  1  0  0  0  0
M  END
> <From>
www.bindingDB.org

> <BindingDB Reactant_set_id>
556950

> <Ligand InChI>
InChI=1S/C22H24ClN5O4S/c1-13(2)33(30,31)19-7-5-4-6-16(19)26-21-15(23)12-25-22(28-21)27-17-10-14(11-20(24)29)8-9-18(17)32-3/h4-10,12-13H,11H2,1-3H3,(H2,24,29)(H2,25,26,27,28)

> <Ligand InChI Key>
WYUZXNOUMQGWRJ-UHFFFAOYSA-N

> <BindingDB MonomerID>
291972

> <BindingDB Ligand Name>
US10100019, Example 42

> <Target Name Assigned by Curator or DataSource>
ALK tyrosine kinase receptor

> <Target Source Organism According to Curator or DataSource>
Homo sapiens

> <Ki (nM)>


> <IC50 (nM)>
 10.00

> <Kd (nM)>


> <EC50 (nM)>


> <kon (M-1-s-1)>


> <koff (s-1)>


> <pH>


> <Temp C>
25.00

> <Curation/DataSource>
US Patent

> <Article DOI>
10.1016/j.bmcl.2006.04.076

> <PMID>


> <PubChem AID>


> <Patent Number>
US10100019

> <Authors>
Kim, P; Kim, HR; Cho, SY; Ha, JD; Jung, HJ; Yun, CS; Hwang, JY; Park, CH; Lee, CO; Ahn, S; Chae, CH

> <Institution>
Korea Research Institute of Chemical Technology

> <Link to Ligand in BindingDB>
http://www.bindingdb.org/bind/chemsearch/marvin/MolStructure.jsp?monomerid=291972

> <Link to Ligand-Target Pair in BindingDB>
http://www.bindingdb.org/jsp/dbsearch/PrimarySearch_ki.jsp?energyterm=kJ/mole&tag=pol&polymerid=5809&target=ALK+tyrosine+kinase+receptor&column=ki&startPg=0&Increment=50&submit=Search

> <Link to Ligand-Target Pair in BindingDB>
http://www.bindingdb.org/jsp/dbsearch/PrimarySearch_ki.jsp?energyterm=kJ/mole&tag=r21&monomerid=291972&enzyme=ALK+tyrosine+kinase+receptor&column=ki&startPg=0&Increment=50&submit=Search

> <Ligand HET ID in PDB>


> <PDB ID(s) for Ligand-Target Complex>


> <PubChem CID>
134449951

> <PubChem SID>
381612271

> <ChEBI ID of Ligand>


> <ChEMBL ID of Ligand>


> <DrugBank ID of Ligand>


> <IUPHAR_GRAC ID of Ligand>


> <KEGG ID of Ligand>


> <ZINC ID of Ligand>


> <Number of Protein Chains in Target (>1 implies a multichain complex)>
1

> <BindingDB Target Chain Sequence>
MGAIGLLWLLPLLLSTAAVGSGMGTGQRAGSPAAGPPLQPREPLSYSRLQRKSLAVDFVVPSLFRVYARDLLLPPSSSELKAGRPEARGSLALDCAPLLRLLGPAPGVSWTAGSPAPAEARTLSRVLKGGSVRKLRRAKQLVLELGEEAILEGCVGPPGEAAVGLLQFNLSELFSWWIRQGEGRLRIRLMPEKKASEVGREGRLSAAIRASQPRLLFQIFGTGHSSLESPTNMPSPSPDYFTWNLTWIMKDSFPFLSHRSRYGLECSFDFPCELEYSPPLHDLRNQSWSWRRIPSEEASQMDLLDGPGAERSKEMPRGSFLLLNTSADSKHTILSPWMRSSSEHCTLAVSVHRHLQPSGRYIAQLLPHNEAAREILLMPTPGKHGWTVLQGRIGRPDNPFRVALEYISSGNRSLSAVDFFALKNCSEGTSPGSKMALQSSFTCWNGTVLQLGQACDFHQDCAQGEDESQMCRKLPVGFYCNFEDGFCGWTQGTLSPHTPQWQVRTLKDARFQDHQDHALLLSTTDVPASESATVTSATFPAPIKSSPCELRMSWLIRGVLRGNVSLVLVENKTGKEQGRMVWHVAAYEGLSLWQWMVLPLLDVSDRFWLQMVAWWGQGSRAIVAFDNISISLDCYLTISGEDKILQNTAPKSRNLFERNPNKELKPGENSPRQTPIFDPTVHWLFTTCGASGPHGPTQAQCNNAYQNSNLSVEVGSEGPLKGIQIWKVPATDTYSISGYGAAGGKGGKNTMMRSHGVSVLGIFNLEKDDMLYILVGQQGEDACPSTNQLIQKVCIGENNVIEEEIRVNRSVHEWAGGGGGGGGATYVFKMKDGVPVPLIIAAGGGGRAYGAKTDTFHPERLENNSSVLGLNGNSGAAGGGGGWNDNTSLLWAGKSLQEGATGGHSCPQAMKKWGWETRGGFGGGGGGCSSGGGGGGYIGGNAASNNDPEMDGEDGVSFISPLGILYTPALKVMEGHGEVNIKHYLNCSHCEVDECHMDPESHKVICFCDHGTVLAEDGVSCIVSPTPEPHLPLSLILSVVTSALVAALVLAFSGIMIVYRRKHQELQAMQMELQSPEYKLSKLRTSTIMTDYNPNYCFAGKTSSISDLKEVPRKNITLIRGLGHGAFGEVYEGQVSGMPNDPSPLQVAVKTLPEVCSEQDELDFLMEALIISKFNHQNIVRCIGVSLQSLPRFILLELMAGGDLKSFLRETRPRPSQPSSLAMLDLLHVARDIACGCQYLEENHFIHRDIAARNCLLTCPGPGRVAKIGDFGMARDIYRASYYRKGGCAMLPVKWMPPEAFMEGIFTSKTDTWSFGVLLWEIFSLGYMPYPSKSNQEVLEFVTSGGRMDPPKNCPGPVYRIMTQCWQHQPEDRPNFAIILERIEYCTQDPDVINTALPIEYGPLVEEEEKVPVRPKDPEGVPPLLVSQQAKREEERSPAAPPPLPTTSSGKAAKKPTAAEISVRVPRGPAVEGGHVNMAFSQSNPPSELHKVHGSRNKPTSLWNPTYGSWFTEKPTKKNNPIAKKEPHDRGNLGLEGSCTVPPNVATGRLPGASLLLEPSSLTANMKEVPLFRLRHFPCGNVNYGYQQQGLPLEAATAPGAGHYEDTILKSKNSMNQPGP

> <PDB ID(s) of Target Chain>
2XB7,2XBA,3AOX,5FTO,5FTQ,6E0R,6EBW,6EDL,6MX8

> <UniProt (SwissProt) Recommended Name of Target Chain>
ALK tyrosine kinase receptor

> <UniProt (SwissProt) Entry Name of Target Chain>
ALK_HUMAN

> <UniProt (SwissProt) Primary ID of Target Chain>
Q9UM73

> <UniProt (SwissProt) Secondary ID(s) of Target Chain>
Q4ZFX9,Q53QQ6,Q53RZ4,Q59FI3,Q9Y4K6

> <UniProt (SwissProt) Alternative ID(s) of Target Chain>


> <UniProt (TrEMBL) Submitted Name of Target Chain>


> <UniProt (TrEMBL) Entry Name of Target Chain>


> <UniProt (TrEMBL) Primary ID of Target Chain>


> <UniProt (TrEMBL) Secondary ID(s) of Target Chain>


> <UniProt (TrEMBL) Alternative ID(s) of Target Chain>


$$$$
00176001.cdx
  Mrv0541 02211919242D          

 38 40  0  0  0  0            999 V2000
   -1.7862    1.0313    0.0000 C   0  0  0  0  0  0  0  0  0  0  0  0
   -1.7862    0.2062    0.0000 C   0  0  0  0  0  0  0  0  0  0  0  0
   -2.5006   -0.2062    0.0000 C   0  0  0  0  0  0  0  0  0  0  0  0
   -3.2151    0.2062    0.0000 C   0  0  0  0  0  0  0  0  0  0  0  0
   -3.2151    1.0313    0.0000 C   0  0  0  0  0  0  0  0  0  0  0  0
   -2.5006    1.4437    0.0000 C   0  0  0  0  0  0  0  0  0  0  0  0
   -1.0717    1.4437    0.0000 S   0  0  0  0  0  0  0  0  0  0  0  0
   -1.0717    2.2687    0.0000 O   0  0  0  0  0  0  0  0  0  0  0  0
   -0.3572    1.8563    0.0000 O   0  0  0  0  0  0  0  0  0  0  0  0
   -1.0717   -0.2062    0.0000 N   0  0  0  0  0  0  0  0  0  0  0  0
   -1.0717   -1.0313    0.0000 C   0  0  0  0  0  0  0  0  0  0  0  0
   -1.7862   -1.4437    0.0000 C   0  0  0  0  0  0  0  0  0  0  0  0
   -1.7862   -2.2687    0.0000 C   0  0  0  0  0  0  0  0  0  0  0  0
   -1.0717   -2.6812    0.0000 N   0  0  0  0  0  0  0  0  0  0  0  0
   -0.3572   -2.2687    0.0000 C   0  0  0  0  0  0  0  0  0  0  0  0
   -0.3572   -1.4437    0.0000 N   0  0  0  0  0  0  0  0  0  0  0  0
   -2.5006   -1.0313    0.0000 Cl  0  0  0  0  0  0  0  0  0  0  0  0
    0.3572   -2.6812    0.0000 N   0  0  0  0  0  0  0  0  0  0  0  0
    1.0717   -2.2687    0.0000 C   0  0  0  0  0  0  0  0  0  0  0  0
    1.0717   -1.4437    0.0000 C   0  0  0  0  0  0  0  0  0  0  0  0
    1.7862   -2.6812    0.0000 C   0  0  0  0  0  0  0  0  0  0  0  0
    2.5006   -2.2687    0.0000 C   0  0  0  0  0  0  0  0  0  0  0  0
    2.5006   -1.4437    0.0000 C   0  0  0  0  0  0  0  0  0  0  0  0
    1.7862   -1.0313    0.0000 C   0  0  0  0  0  0  0  0  0  0  0  0
    1.7862   -3.5062    0.0000 O   0  0  0  0  0  0  0  0  0  0  0  0
    1.7862   -0.2062    0.0000 C   0  0  0  0  0  0  0  0  0  0  0  0
    2.5006    0.2062    0.0000 C   0  0  0  0  0  0  0  0  0  0  0  0
    3.2151   -0.2062    0.0000 O   0  0  0  0  0  0  0  0  0  0  0  0
   -0.3572    1.0313    0.0000 C   0  0  0  0  0  0  0  0  0  0  0  0
    0.3572    1.4437    0.0000 C   0  0  0  0  0  0  0  0  0  0  0  0
   -0.1437    0.2344    0.0000 C   0  0  0  0  0  0  0  0  0  0  0  0
    2.5006    1.0313    0.0000 O   0  0  0  0  0  0  0  0  0  0  0  0
    1.7862    1.4437    0.0000 C   0  0  0  0  0  0  0  0  0  0  0  0
    1.7862    2.2687    0.0000 C   0  0  0  0  0  0  0  0  0  0  0  0
    1.0717    2.6812    0.0000 O   0  0  0  0  0  0  0  0  0  0  0  0
    1.0717    3.5062    0.0000 C   0  0  0  0  0  0  0  0  0  0  0  0
    0.3572    3.9187    0.0000 C   0  0  0  0  0  0  0  0  0  0  0  0
    1.0717   -3.9187    0.0000 C   0  0  0  0  0  0  0  0  0  0  0  0
  1  2  4  0  0  0  0
  2  3  4  0  0  0  0
  3  4  4  0  0  0  0
  4  5  4  0  0  0  0
  5  6  4  0  0  0  0
  6  1  4  0  0  0  0
  1  7  1  0  0  0  0
  7  8  2  0  0  0  0
  7  9  2  0  0  0  0
  2 10  1  0  0  0  0
 10 11  1  0  0  0  0
 11 12  4  0  0  0  0
 12 13  4  0  0  0  0
 13 14  4  0  0  0  0
 14 15  4  0  0  0  0
 15 16  4  0  0  0  0
 16 11  4  0  0  0  0
 12 17  1  0  0  0  0
 15 18  1  0  0  0  0
 18 19  1  0  0  0  0
 19 20  4  0  0  0  0
 19 21  4  0  0  0  0
 21 22  4  0  0  0  0
 22 23  4  0  0  0  0
 23 24  4  0  0  0  0
 24 20  4  0  0  0  0
 21 25  1  0  0  0  0
 24 26  1  0  0  0  0
 26 27  1  0  0  0  0
 27 28  2  0  0  0  0
  7 29  1  0  0  0  0
 29 30  1  0  0  0  0
 29 31  1  0  0  0  0
 27 32  1  0  0  0  0
 32 33  1  0  0  0  0
 33 34  1  0  0  0  0
 34 35  1  0  0  0  0
 35 36  1  0  0  0  0
 36 37  1  0  0  0  0
 25 38  1  0  0  0  0
M  END
> <From>
www.bindingDB.org

> <BindingDB Reactant_set_id>
556951

> <Ligand InChI>
InChI=1S/C26H31ClN4O6S/c1-5-36-12-13-37-24(32)15-18-10-11-22(35-4)21(14-18)30-26-28-16-19(27)25(31-26)29-20-8-6-7-9-23(20)38(33,34)17(2)3/h6-11,14,16-17H,5,12-13,15H2,1-4H3,(H2,28,29,30,31)

> <Ligand InChI Key>
NPWQIGFYKFNOSK-UHFFFAOYSA-N

> <BindingDB MonomerID>
291973

> <BindingDB Ligand Name>
US10100019, Example 43

> <Target Name Assigned by Curator or DataSource>
ALK tyrosine kinase receptor

> <Target Source Organism According to Curator or DataSource>
Homo sapiens

> <Ki (nM)>


> <IC50 (nM)>
 190

> <Kd (nM)>


> <EC50 (nM)>


> <kon (M-1-s-1)>


> <koff (s-1)>


> <pH>


> <Temp C>
25.00

> <Curation/DataSource>
US Patent

> <Article DOI>
10.1016/j.bmcl.2006.04.076

> <PMID>


> <PubChem AID>


> <Patent Number>
US10100019

> <Authors>
Kim, P; Kim, HR; Cho, SY; Ha, JD; Jung, HJ; Yun, CS; Hwang, JY; Park, CH; Lee, CO; Ahn, S; Chae, CH

> <Institution>
Korea Research Institute of Chemical Technology

> <Link to Ligand in BindingDB>
http://www.bindingdb.org/bind/chemsearch/marvin/MolStructure.jsp?monomerid=291973

> <Link to Ligand-Target Pair in BindingDB>
http://www.bindingdb.org/jsp/dbsearch/PrimarySearch_ki.jsp?energyterm=kJ/mole&tag=pol&polymerid=5809&target=ALK+tyrosine+kinase+receptor&column=ki&startPg=0&Increment=50&submit=Search

> <Link to Ligand-Target Pair in BindingDB>
http://www.bindingdb.org/jsp/dbsearch/PrimarySearch_ki.jsp?energyterm=kJ/mole&tag=r21&monomerid=291973&enzyme=ALK+tyrosine+kinase+receptor&column=ki&startPg=0&Increment=50&submit=Search

> <Ligand HET ID in PDB>


> <PDB ID(s) for Ligand-Target Complex>


> <PubChem CID>
134449950

> <PubChem SID>
381612272

> <ChEBI ID of Ligand>


> <ChEMBL ID of Ligand>


> <DrugBank ID of Ligand>


> <IUPHAR_GRAC ID of Ligand>


> <KEGG ID of Ligand>


> <ZINC ID of Ligand>


> <Number of Protein Chains in Target (>1 implies a multichain complex)>
1

> <BindingDB Target Chain Sequence>
MGAIGLLWLLPLLLSTAAVGSGMGTGQRAGSPAAGPPLQPREPLSYSRLQRKSLAVDFVVPSLFRVYARDLLLPPSSSELKAGRPEARGSLALDCAPLLRLLGPAPGVSWTAGSPAPAEARTLSRVLKGGSVRKLRRAKQLVLELGEEAILEGCVGPPGEAAVGLLQFNLSELFSWWIRQGEGRLRIRLMPEKKASEVGREGRLSAAIRASQPRLLFQIFGTGHSSLESPTNMPSPSPDYFTWNLTWIMKDSFPFLSHRSRYGLECSFDFPCELEYSPPLHDLRNQSWSWRRIPSEEASQMDLLDGPGAERSKEMPRGSFLLLNTSADSKHTILSPWMRSSSEHCTLAVSVHRHLQPSGRYIAQLLPHNEAAREILLMPTPGKHGWTVLQGRIGRPDNPFRVALEYISSGNRSLSAVDFFALKNCSEGTSPGSKMALQSSFTCWNGTVLQLGQACDFHQDCAQGEDESQMCRKLPVGFYCNFEDGFCGWTQGTLSPHTPQWQVRTLKDARFQDHQDHALLLSTTDVPASESATVTSATFPAPIKSSPCELRMSWLIRGVLRGNVSLVLVENKTGKEQGRMVWHVAAYEGLSLWQWMVLPLLDVSDRFWLQMVAWWGQGSRAIVAFDNISISLDCYLTISGEDKILQNTAPKSRNLFERNPNKELKPGENSPRQTPIFDPTVHWLFTTCGASGPHGPTQAQCNNAYQNSNLSVEVGSEGPLKGIQIWKVPATDTYSISGYGAAGGKGGKNTMMRSHGVSVLGIFNLEKDDMLYILVGQQGEDACPSTNQLIQKVCIGENNVIEEEIRVNRSVHEWAGGGGGGGGATYVFKMKDGVPVPLIIAAGGGGRAYGAKTDTFHPERLENNSSVLGLNGNSGAAGGGGGWNDNTSLLWAGKSLQEGATGGHSCPQAMKKWGWETRGGFGGGGGGCSSGGGGGGYIGGNAASNNDPEMDGEDGVSFISPLGILYTPALKVMEGHGEVNIKHYLNCSHCEVDECHMDPESHKVICFCDHGTVLAEDGVSCIVSPTPEPHLPLSLILSVVTSALVAALVLAFSGIMIVYRRKHQELQAMQMELQSPEYKLSKLRTSTIMTDYNPNYCFAGKTSSISDLKEVPRKNITLIRGLGHGAFGEVYEGQVSGMPNDPSPLQVAVKTLPEVCSEQDELDFLMEALIISKFNHQNIVRCIGVSLQSLPRFILLELMAGGDLKSFLRETRPRPSQPSSLAMLDLLHVARDIACGCQYLEENHFIHRDIAARNCLLTCPGPGRVAKIGDFGMARDIYRASYYRKGGCAMLPVKWMPPEAFMEGIFTSKTDTWSFGVLLWEIFSLGYMPYPSKSNQEVLEFVTSGGRMDPPKNCPGPVYRIMTQCWQHQPEDRPNFAIILERIEYCTQDPDVINTALPIEYGPLVEEEEKVPVRPKDPEGVPPLLVSQQAKREEERSPAAPPPLPTTSSGKAAKKPTAAEISVRVPRGPAVEGGHVNMAFSQSNPPSELHKVHGSRNKPTSLWNPTYGSWFTEKPTKKNNPIAKKEPHDRGNLGLEGSCTVPPNVATGRLPGASLLLEPSSLTANMKEVPLFRLRHFPCGNVNYGYQQQGLPLEAATAPGAGHYEDTILKSKNSMNQPGP

> <PDB ID(s) of Target Chain>
2XB7,2XBA,3AOX,5FTO,5FTQ,6E0R,6EBW,6EDL,6MX8

> <UniProt (SwissProt) Recommended Name of Target Chain>
ALK tyrosine kinase receptor

> <UniProt (SwissProt) Entry Name of Target Chain>
ALK_HUMAN

> <UniProt (SwissProt) Primary ID of Target Chain>
Q9UM73

> <UniProt (SwissProt) Secondary ID(s) of Target Chain>
Q4ZFX9,Q53QQ6,Q53RZ4,Q59FI3,Q9Y4K6

> <UniProt (SwissProt) Alternative ID(s) of Target Chain>


> <UniProt (TrEMBL) Submitted Name of Target Chain>


> <UniProt (TrEMBL) Entry Name of Target Chain>


> <UniProt (TrEMBL) Primary ID of Target Chain>


> <UniProt (TrEMBL) Secondary ID(s) of Target Chain>


> <UniProt (TrEMBL) Alternative ID(s) of Target Chain>


$$$$
00181001.cdx
  Mrv0541 02211919242D          

 33 35  0  0  0  0            999 V2000
   -1.4289   -0.2062    0.0000 C   0  0  0  0  0  0  0  0  0  0  0  0
   -2.1434   -0.6187    0.0000 C   0  0  0  0  0  0  0  0  0  0  0  0
   -2.1434   -1.4437    0.0000 C   0  0  0  0  0  0  0  0  0  0  0  0
   -1.4289   -1.8563    0.0000 N   0  0  0  0  0  0  0  0  0  0  0  0
   -0.7145   -1.4437    0.0000 C   0  0  0  0  0  0  0  0  0  0  0  0
   -0.7145   -0.6187    0.0000 N   0  0  0  0  0  0  0  0  0  0  0  0
   -2.8579   -0.2062    0.0000 Cl  0  0  0  0  0  0  0  0  0  0  0  0
    0.7145   -1.4437    0.0000 C   0  0  0  0  0  0  0  0  0  0  0  0
    0.7145   -0.6187    0.0000 C   0  0  0  0  0  0  0  0  0  0  0  0
    1.4289   -1.8563    0.0000 C   0  0  0  0  0  0  0  0  0  0  0  0
    2.1434   -1.4437    0.0000 C   0  0  0  0  0  0  0  0  0  0  0  0
    2.1434   -0.6187    0.0000 C   0  0  0  0  0  0  0  0  0  0  0  0
    1.4289   -0.2062    0.0000 C   0  0  0  0  0  0  0  0  0  0  0  0
    1.4289   -2.6812    0.0000 O   0  0  0  0  0  0  0  0  0  0  0  0
    1.4289    0.6187    0.0000 C   0  0  0  0  0  0  0  0  0  0  0  0
    2.1434    1.0313    0.0000 C   0  0  0  0  0  0  0  0  0  0  0  0
   -0.7145    1.8563    0.0000 C   0  0  0  0  0  0  0  0  0  0  0  0
   -0.7145    1.0313    0.0000 C   0  0  0  0  0  0  0  0  0  0  0  0
    0.0000    0.6187    0.0000 C   0  0  0  0  0  0  0  0  0  0  0  0
    0.7145    1.0313    0.0000 C   0  0  0  0  0  0  0  0  0  0  0  0
    0.7145    1.8563    0.0000 C   0  0  0  0  0  0  0  0  0  0  0  0
    0.0000    2.2687    0.0000 C   0  0  0  0  0  0  0  0  0  0  0  0
   -1.4289    2.2687    0.0000 S   0  0  0  0  0  0  0  0  0  0  0  0
   -1.4289    0.6187    0.0000 N   0  0  0  0  0  0  0  0  0  0  0  0
   -2.1434    1.8563    0.0000 C   0  0  0  0  0  0  0  0  0  0  0  0
   -1.4289    3.0938    0.0000 O   0  0  0  0  0  0  0  0  0  0  0  0
   -0.7145    2.6812    0.0000 O   0  0  0  0  0  0  0  0  0  0  0  0
   -2.8579    2.2687    0.0000 C   0  0  0  0  0  0  0  0  0  0  0  0
   -2.1434    1.0313    0.0000 C   0  0  0  0  0  0  0  0  0  0  0  0
    0.0000   -1.8563    0.0000 N   0  0  0  0  0  0  0  0  0  0  0  0
    2.8579    0.6187    0.0000 O   0  0  0  0  0  0  0  0  0  0  0  0
    0.7145   -3.0938    0.0000 C   0  0  0  0  0  0  0  0  0  0  0  0
    2.1434    1.8563    0.0000 O   0  0  0  0  0  0  0  0  0  0  0  0
 24  1  1  0  0  0  0
  1  2  4  0  0  0  0
  2  3  4  0  0  0  0
  3  4  4  0  0  0  0
  4  5  4  0  0  0  0
  5  6  4  0  0  0  0
  6  1  4  0  0  0  0
  2  7  1  0  0  0  0
 30  8  1  0  0  0  0
  8  9  4  0  0  0  0
  8 10  4  0  0  0  0
 10 11  4  0  0  0  0
 11 12  4  0  0  0  0
 12 13  4  0  0  0  0
 13  9  4  0  0  0  0
 10 14  1  0  0  0  0
 13 15  1  0  0  0  0
 15 16  1  0  0  0  0
 17 18  4  0  0  0  0
 18 19  4  0  0  0  0
 19 20  4  0  0  0  0
 20 21  4  0  0  0  0
 21 22  4  0  0  0  0
 22 17  4  0  0  0  0
 17 23  1  0  0  0  0
 18 24  1  0  0  0  0
 23 25  1  0  0  0  0
 23 26  2  0  0  0  0
 23 27  2  0  0  0  0
 25 28  1  0  0  0  0
 25 29  1  0  0  0  0
  5 30  1  0  0  0  0
 16 31  2  0  0  0  0
 14 32  1  0  0  0  0
 16 33  1  0  0  0  0
M  END
> <From>
www.bindingDB.org

> <BindingDB Reactant_set_id>
556952

> <Ligand InChI>
InChI=1S/C22H23ClN4O5S/c1-13(2)33(30,31)19-7-5-4-6-16(19)25-21-15(23)12-24-22(27-21)26-17-10-14(11-20(28)29)8-9-18(17)32-3/h4-10,12-13H,11H2,1-3H3,(H,28,29)(H2,24,25,26,27)

> <Ligand InChI Key>
IFENGTVBYLDKRT-UHFFFAOYSA-N

> <BindingDB MonomerID>
291974

> <BindingDB Ligand Name>
US10100019, Example 44

> <Target Name Assigned by Curator or DataSource>
ALK tyrosine kinase receptor

> <Target Source Organism According to Curator or DataSource>
Homo sapiens

> <Ki (nM)>


> <IC50 (nM)>
 9.50

> <Kd (nM)>


> <EC50 (nM)>


> <kon (M-1-s-1)>


> <koff (s-1)>


> <pH>


> <Temp C>
25.00

> <Curation/DataSource>
US Patent

> <Article DOI>
10.1016/j.bmcl.2006.04.076

> <PMID>


> <PubChem AID>


> <Patent Number>
US10100019

> <Authors>
Kim, P; Kim, HR; Cho, SY; Ha, JD; Jung, HJ; Yun, CS; Hwang, JY; Park, CH; Lee, CO; Ahn, S; Chae, CH

> <Institution>
Korea Research Institute of Chemical Technology

> <Link to Ligand in BindingDB>
http://www.bindingdb.org/bind/chemsearch/marvin/MolStructure.jsp?monomerid=291974

> <Link to Ligand-Target Pair in BindingDB>
http://www.bindingdb.org/jsp/dbsearch/PrimarySearch_ki.jsp?energyterm=kJ/mole&tag=pol&polymerid=5809&target=ALK+tyrosine+kinase+receptor&column=ki&startPg=0&Increment=50&submit=Search

> <Link to Ligand-Target Pair in BindingDB>
http://www.bindingdb.org/jsp/dbsearch/PrimarySearch_ki.jsp?energyterm=kJ/mole&tag=r21&monomerid=291974&enzyme=ALK+tyrosine+kinase+receptor&column=ki&startPg=0&Increment=50&submit=Search

> <Ligand HET ID in PDB>


> <PDB ID(s) for Ligand-Target Complex>


> <PubChem CID>
134449952

> <PubChem SID>
381612273

> <ChEBI ID of Ligand>


> <ChEMBL ID of Ligand>


> <DrugBank ID of Ligand>


> <IUPHAR_GRAC ID of Ligand>


> <KEGG ID of Ligand>


> <ZINC ID of Ligand>


> <Number of Protein Chains in Target (>1 implies a multichain complex)>
1

> <BindingDB Target Chain Sequence>
MGAIGLLWLLPLLLSTAAVGSGMGTGQRAGSPAAGPPLQPREPLSYSRLQRKSLAVDFVVPSLFRVYARDLLLPPSSSELKAGRPEARGSLALDCAPLLRLLGPAPGVSWTAGSPAPAEARTLSRVLKGGSVRKLRRAKQLVLELGEEAILEGCVGPPGEAAVGLLQFNLSELFSWWIRQGEGRLRIRLMPEKKASEVGREGRLSAAIRASQPRLLFQIFGTGHSSLESPTNMPSPSPDYFTWNLTWIMKDSFPFLSHRSRYGLECSFDFPCELEYSPPLHDLRNQSWSWRRIPSEEASQMDLLDGPGAERSKEMPRGSFLLLNTSADSKHTILSPWMRSSSEHCTLAVSVHRHLQPSGRYIAQLLPHNEAAREILLMPTPGKHGWTVLQGRIGRPDNPFRVALEYISSGNRSLSAVDFFALKNCSEGTSPGSKMALQSSFTCWNGTVLQLGQACDFHQDCAQGEDESQMCRKLPVGFYCNFEDGFCGWTQGTLSPHTPQWQVRTLKDARFQDHQDHALLLSTTDVPASESATVTSATFPAPIKSSPCELRMSWLIRGVLRGNVSLVLVENKTGKEQGRMVWHVAAYEGLSLWQWMVLPLLDVSDRFWLQMVAWWGQGSRAIVAFDNISISLDCYLTISGEDKILQNTAPKSRNLFERNPNKELKPGENSPRQTPIFDPTVHWLFTTCGASGPHGPTQAQCNNAYQNSNLSVEVGSEGPLKGIQIWKVPATDTYSISGYGAAGGKGGKNTMMRSHGVSVLGIFNLEKDDMLYILVGQQGEDACPSTNQLIQKVCIGENNVIEEEIRVNRSVHEWAGGGGGGGGATYVFKMKDGVPVPLIIAAGGGGRAYGAKTDTFHPERLENNSSVLGLNGNSGAAGGGGGWNDNTSLLWAGKSLQEGATGGHSCPQAMKKWGWETRGGFGGGGGGCSSGGGGGGYIGGNAASNNDPEMDGEDGVSFISPLGILYTPALKVMEGHGEVNIKHYLNCSHCEVDECHMDPESHKVICFCDHGTVLAEDGVSCIVSPTPEPHLPLSLILSVVTSALVAALVLAFSGIMIVYRRKHQELQAMQMELQSPEYKLSKLRTSTIMTDYNPNYCFAGKTSSISDLKEVPRKNITLIRGLGHGAFGEVYEGQVSGMPNDPSPLQVAVKTLPEVCSEQDELDFLMEALIISKFNHQNIVRCIGVSLQSLPRFILLELMAGGDLKSFLRETRPRPSQPSSLAMLDLLHVARDIACGCQYLEENHFIHRDIAARNCLLTCPGPGRVAKIGDFGMARDIYRASYYRKGGCAMLPVKWMPPEAFMEGIFTSKTDTWSFGVLLWEIFSLGYMPYPSKSNQEVLEFVTSGGRMDPPKNCPGPVYRIMTQCWQHQPEDRPNFAIILERIEYCTQDPDVINTALPIEYGPLVEEEEKVPVRPKDPEGVPPLLVSQQAKREEERSPAAPPPLPTTSSGKAAKKPTAAEISVRVPRGPAVEGGHVNMAFSQSNPPSELHKVHGSRNKPTSLWNPTYGSWFTEKPTKKNNPIAKKEPHDRGNLGLEGSCTVPPNVATGRLPGASLLLEPSSLTANMKEVPLFRLRHFPCGNVNYGYQQQGLPLEAATAPGAGHYEDTILKSKNSMNQPGP

> <PDB ID(s) of Target Chain>
2XB7,2XBA,3AOX,5FTO,5FTQ,6E0R,6EBW,6EDL,6MX8

> <UniProt (SwissProt) Recommended Name of Target Chain>
ALK tyrosine kinase receptor

> <UniProt (SwissProt) Entry Name of Target Chain>
ALK_HUMAN

> <UniProt (SwissProt) Primary ID of Target Chain>
Q9UM73

> <UniProt (SwissProt) Secondary ID(s) of Target Chain>
Q4ZFX9,Q53QQ6,Q53RZ4,Q59FI3,Q9Y4K6

> <UniProt (SwissProt) Alternative ID(s) of Target Chain>


> <UniProt (TrEMBL) Submitted Name of Target Chain>


> <UniProt (TrEMBL) Entry Name of Target Chain>


> <UniProt (TrEMBL) Primary ID of Target Chain>


> <UniProt (TrEMBL) Secondary ID(s) of Target Chain>


> <UniProt (TrEMBL) Alternative ID(s) of Target Chain>


$$$$
00177001.cdx
  Mrv0541 02211919242D          

 38 41  0  0  0  0            999 V2000
   -1.4289   -0.4125    0.0000 C   0  0  0  0  0  0  0  0  0  0  0  0
   -2.1434   -0.8250    0.0000 C   0  0  0  0  0  0  0  0  0  0  0  0
   -2.1434   -1.6500    0.0000 C   0  0  0  0  0  0  0  0  0  0  0  0
   -1.4289   -2.0625    0.0000 N   0  0  0  0  0  0  0  0  0  0  0  0
   -0.7145   -1.6500    0.0000 C   0  0  0  0  0  0  0  0  0  0  0  0
   -0.7145   -0.8250    0.0000 N   0  0  0  0  0  0  0  0  0  0  0  0
   -2.8579   -0.4125    0.0000 Cl  0  0  0  0  0  0  0  0  0  0  0  0
    0.7145   -1.6500    0.0000 C   0  0  0  0  0  0  0  0  0  0  0  0
    0.7145   -0.8250    0.0000 C   0  0  0  0  0  0  0  0  0  0  0  0
    1.4289   -2.0625    0.0000 C   0  0  0  0  0  0  0  0  0  0  0  0
    2.1434   -1.6500    0.0000 C   0  0  0  0  0  0  0  0  0  0  0  0
    2.1434   -0.8250    0.0000 C   0  0  0  0  0  0  0  0  0  0  0  0
    1.4289   -0.4125    0.0000 C   0  0  0  0  0  0  0  0  0  0  0  0
    1.4289   -2.8875    0.0000 O   0  0  0  0  0  0  0  0  0  0  0  0
    1.4289    0.4125    0.0000 C   0  0  0  0  0  0  0  0  0  0  0  0
    2.1434    0.8250    0.0000 C   0  0  0  0  0  0  0  0  0  0  0  0
   -0.7145    1.6500    0.0000 C   0  0  0  0  0  0  0  0  0  0  0  0
   -0.7145    0.8250    0.0000 C   0  0  0  0  0  0  0  0  0  0  0  0
    0.0000    0.4125    0.0000 C   0  0  0  0  0  0  0  0  0  0  0  0
    0.7145    0.8250    0.0000 C   0  0  0  0  0  0  0  0  0  0  0  0
    0.7145    1.6500    0.0000 C   0  0  0  0  0  0  0  0  0  0  0  0
    0.0000    2.0625    0.0000 C   0  0  0  0  0  0  0  0  0  0  0  0
   -1.4289    2.0625    0.0000 S   0  0  0  0  0  0  0  0  0  0  0  0
   -1.4289    0.4125    0.0000 N   0  0  0  0  0  0  0  0  0  0  0  0
   -2.1434    1.6500    0.0000 C   0  0  0  0  0  0  0  0  0  0  0  0
   -1.4289    2.8875    0.0000 O   0  0  0  0  0  0  0  0  0  0  0  0
   -0.7145    2.4750    0.0000 O   0  0  0  0  0  0  0  0  0  0  0  0
   -2.8579    2.0625    0.0000 C   0  0  0  0  0  0  0  0  0  0  0  0
   -2.3569    0.8531    0.0000 C   0  0  0  0  0  0  0  0  0  0  0  0
    0.0000   -2.0625    0.0000 N   0  0  0  0  0  0  0  0  0  0  0  0
    2.8579    0.4125    0.0000 O   0  0  0  0  0  0  0  0  0  0  0  0
    0.7145   -3.3000    0.0000 C   0  0  0  0  0  0  0  0  0  0  0  0
    2.1434    1.6500    0.0000 N   0  0  0  0  0  0  0  0  0  0  0  0
    2.8579    2.0625    0.0000 C   0  0  0  0  0  0  0  0  0  0  0  0
    2.8579    2.8875    0.0000 C   0  0  0  0  0  0  0  0  0  0  0  0
    2.1434    3.3000    0.0000 O   0  0  0  0  0  0  0  0  0  0  0  0
    1.4289    2.8875    0.0000 C   0  0  0  0  0  0  0  0  0  0  0  0
    1.4289    2.0625    0.0000 C   0  0  0  0  0  0  0  0  0  0  0  0
 24  1  1  0  0  0  0
  1  2  4  0  0  0  0
  2  3  4  0  0  0  0
  3  4  4  0  0  0  0
  4  5  4  0  0  0  0
  5  6  4  0  0  0  0
  6  1  4  0  0  0  0
  2  7  1  0  0  0  0
 30  8  1  0  0  0  0
  8  9  4  0  0  0  0
  8 10  4  0  0  0  0
 10 11  4  0  0  0  0
 11 12  4  0  0  0  0
 12 13  4  0  0  0  0
 13  9  4  0  0  0  0
 10 14  1  0  0  0  0
 13 15  1  0  0  0  0
 15 16  1  0  0  0  0
 17 18  4  0  0  0  0
 18 19  4  0  0  0  0
 19 20  4  0  0  0  0
 20 21  4  0  0  0  0
 21 22  4  0  0  0  0
 22 17  4  0  0  0  0
 17 23  1  0  0  0  0
 18 24  1  0  0  0  0
 23 25  1  0  0  0  0
 23 26  2  0  0  0  0
 23 27  2  0  0  0  0
 25 28  1  0  0  0  0
 25 29  1  0  0  0  0
  5 30  1  0  0  0  0
 16 31  2  0  0  0  0
 14 32  1  0  0  0  0
 16 33  1  0  0  0  0
 33 34  1  0  0  0  0
 34 35  1  0  0  0  0
 35 36  1  0  0  0  0
 36 37  1  0  0  0  0
 37 38  1  0  0  0  0
 38 33  1  0  0  0  0
M  END
> <From>
www.bindingDB.org

> <BindingDB Reactant_set_id>
556953

> <Ligand InChI>
InChI=1S/C26H30ClN5O5S/c1-17(2)38(34,35)23-7-5-4-6-20(23)29-25-19(27)16-28-26(31-25)30-21-14-18(8-9-22(21)36-3)15-24(33)32-10-12-37-13-11-32/h4-9,14,16-17H,10-13,15H2,1-3H3,(H2,28,29,30,31)

> <Ligand InChI Key>
XLQLMLKDNNCICS-UHFFFAOYSA-N

> <BindingDB MonomerID>
291975

> <BindingDB Ligand Name>
US10100019, Example 45

> <Target Name Assigned by Curator or DataSource>
ALK tyrosine kinase receptor

> <Target Source Organism According to Curator or DataSource>
Homo sapiens

> <Ki (nM)>


> <IC50 (nM)>
 26.0

> <Kd (nM)>


> <EC50 (nM)>


> <kon (M-1-s-1)>


> <koff (s-1)>


> <pH>


> <Temp C>
25.00

> <Curation/DataSource>
US Patent

> <Article DOI>
10.1016/j.bmcl.2006.04.076

> <PMID>


> <PubChem AID>


> <Patent Number>
US10100019

> <Authors>
Kim, P; Kim, HR; Cho, SY; Ha, JD; Jung, HJ; Yun, CS; Hwang, JY; Park, CH; Lee, CO; Ahn, S; Chae, CH

> <Institution>
Korea Research Institute of Chemical Technology

> <Link to Ligand in BindingDB>
http://www.bindingdb.org/bind/chemsearch/marvin/MolStructure.jsp?monomerid=291975

> <Link to Ligand-Target Pair in BindingDB>
http://www.bindingdb.org/jsp/dbsearch/PrimarySearch_ki.jsp?energyterm=kJ/mole&tag=pol&polymerid=5809&target=ALK+tyrosine+kinase+receptor&column=ki&startPg=0&Increment=50&submit=Search

> <Link to Ligand-Target Pair in BindingDB>
http://www.bindingdb.org/jsp/dbsearch/PrimarySearch_ki.jsp?energyterm=kJ/mole&tag=r21&monomerid=291975&enzyme=ALK+tyrosine+kinase+receptor&column=ki&startPg=0&Increment=50&submit=Search

> <Ligand HET ID in PDB>


> <PDB ID(s) for Ligand-Target Complex>


> <PubChem CID>
134449953

> <PubChem SID>
381612274

> <ChEBI ID of Ligand>


> <ChEMBL ID of Ligand>


> <DrugBank ID of Ligand>


> <IUPHAR_GRAC ID of Ligand>


> <KEGG ID of Ligand>


> <ZINC ID of Ligand>


> <Number of Protein Chains in Target (>1 implies a multichain complex)>
1

> <BindingDB Target Chain Sequence>
MGAIGLLWLLPLLLSTAAVGSGMGTGQRAGSPAAGPPLQPREPLSYSRLQRKSLAVDFVVPSLFRVYARDLLLPPSSSELKAGRPEARGSLALDCAPLLRLLGPAPGVSWTAGSPAPAEARTLSRVLKGGSVRKLRRAKQLVLELGEEAILEGCVGPPGEAAVGLLQFNLSELFSWWIRQGEGRLRIRLMPEKKASEVGREGRLSAAIRASQPRLLFQIFGTGHSSLESPTNMPSPSPDYFTWNLTWIMKDSFPFLSHRSRYGLECSFDFPCELEYSPPLHDLRNQSWSWRRIPSEEASQMDLLDGPGAERSKEMPRGSFLLLNTSADSKHTILSPWMRSSSEHCTLAVSVHRHLQPSGRYIAQLLPHNEAAREILLMPTPGKHGWTVLQGRIGRPDNPFRVALEYISSGNRSLSAVDFFALKNCSEGTSPGSKMALQSSFTCWNGTVLQLGQACDFHQDCAQGEDESQMCRKLPVGFYCNFEDGFCGWTQGTLSPHTPQWQVRTLKDARFQDHQDHALLLSTTDVPASESATVTSATFPAPIKSSPCELRMSWLIRGVLRGNVSLVLVENKTGKEQGRMVWHVAAYEGLSLWQWMVLPLLDVSDRFWLQMVAWWGQGSRAIVAFDNISISLDCYLTISGEDKILQNTAPKSRNLFERNPNKELKPGENSPRQTPIFDPTVHWLFTTCGASGPHGPTQAQCNNAYQNSNLSVEVGSEGPLKGIQIWKVPATDTYSISGYGAAGGKGGKNTMMRSHGVSVLGIFNLEKDDMLYILVGQQGEDACPSTNQLIQKVCIGENNVIEEEIRVNRSVHEWAGGGGGGGGATYVFKMKDGVPVPLIIAAGGGGRAYGAKTDTFHPERLENNSSVLGLNGNSGAAGGGGGWNDNTSLLWAGKSLQEGATGGHSCPQAMKKWGWETRGGFGGGGGGCSSGGGGGGYIGGNAASNNDPEMDGEDGVSFISPLGILYTPALKVMEGHGEVNIKHYLNCSHCEVDECHMDPESHKVICFCDHGTVLAEDGVSCIVSPTPEPHLPLSLILSVVTSALVAALVLAFSGIMIVYRRKHQELQAMQMELQSPEYKLSKLRTSTIMTDYNPNYCFAGKTSSISDLKEVPRKNITLIRGLGHGAFGEVYEGQVSGMPNDPSPLQVAVKTLPEVCSEQDELDFLMEALIISKFNHQNIVRCIGVSLQSLPRFILLELMAGGDLKSFLRETRPRPSQPSSLAMLDLLHVARDIACGCQYLEENHFIHRDIAARNCLLTCPGPGRVAKIGDFGMARDIYRASYYRKGGCAMLPVKWMPPEAFMEGIFTSKTDTWSFGVLLWEIFSLGYMPYPSKSNQEVLEFVTSGGRMDPPKNCPGPVYRIMTQCWQHQPEDRPNFAIILERIEYCTQDPDVINTALPIEYGPLVEEEEKVPVRPKDPEGVPPLLVSQQAKREEERSPAAPPPLPTTSSGKAAKKPTAAEISVRVPRGPAVEGGHVNMAFSQSNPPSELHKVHGSRNKPTSLWNPTYGSWFTEKPTKKNNPIAKKEPHDRGNLGLEGSCTVPPNVATGRLPGASLLLEPSSLTANMKEVPLFRLRHFPCGNVNYGYQQQGLPLEAATAPGAGHYEDTILKSKNSMNQPGP

> <PDB ID(s) of Target Chain>
2XB7,2XBA,3AOX,5FTO,5FTQ,6E0R,6EBW,6EDL,6MX8

> <UniProt (SwissProt) Recommended Name of Target Chain>
ALK tyrosine kinase receptor

> <UniProt (SwissProt) Entry Name of Target Chain>
ALK_HUMAN

> <UniProt (SwissProt) Primary ID of Target Chain>
Q9UM73

> <UniProt (SwissProt) Secondary ID(s) of Target Chain>
Q4ZFX9,Q53QQ6,Q53RZ4,Q59FI3,Q9Y4K6

> <UniProt (SwissProt) Alternative ID(s) of Target Chain>


> <UniProt (TrEMBL) Submitted Name of Target Chain>


> <UniProt (TrEMBL) Entry Name of Target Chain>


> <UniProt (TrEMBL) Primary ID of Target Chain>


> <UniProt (TrEMBL) Secondary ID(s) of Target Chain>


> <UniProt (TrEMBL) Alternative ID(s) of Target Chain>


$$$$
00182001.cdx
  Mrv0541 02211919242D          

 38 41  0  0  0  0            999 V2000
   -1.4289   -0.4125    0.0000 C   0  0  0  0  0  0  0  0  0  0  0  0
   -2.1434   -0.8250    0.0000 C   0  0  0  0  0  0  0  0  0  0  0  0
   -2.1434   -1.6500    0.0000 C   0  0  0  0  0  0  0  0  0  0  0  0
   -1.4289   -2.0625    0.0000 N   0  0  0  0  0  0  0  0  0  0  0  0
   -0.7145   -1.6500    0.0000 C   0  0  0  0  0  0  0  0  0  0  0  0
   -0.7145   -0.8250    0.0000 N   0  0  0  0  0  0  0  0  0  0  0  0
   -2.8579   -0.4125    0.0000 Cl  0  0  0  0  0  0  0  0  0  0  0  0
    0.7145   -1.6500    0.0000 C   0  0  0  0  0  0  0  0  0  0  0  0
    0.7145   -0.8250    0.0000 C   0  0  0  0  0  0  0  0  0  0  0  0
    1.4289   -2.0625    0.0000 C   0  0  0  0  0  0  0  0  0  0  0  0
    2.1434   -1.6500    0.0000 C   0  0  0  0  0  0  0  0  0  0  0  0
    2.1434   -0.8250    0.0000 C   0  0  0  0  0  0  0  0  0  0  0  0
    1.4289   -0.4125    0.0000 C   0  0  0  0  0  0  0  0  0  0  0  0
    1.4289   -2.8875    0.0000 O   0  0  0  0  0  0  0  0  0  0  0  0
    1.4289    0.4125    0.0000 C   0  0  0  0  0  0  0  0  0  0  0  0
    2.1434    0.8250    0.0000 C   0  0  0  0  0  0  0  0  0  0  0  0
   -0.7145    1.6500    0.0000 C   0  0  0  0  0  0  0  0  0  0  0  0
   -0.7145    0.8250    0.0000 C   0  0  0  0  0  0  0  0  0  0  0  0
    0.0000    0.4125    0.0000 C   0  0  0  0  0  0  0  0  0  0  0  0
    0.7145    0.8250    0.0000 C   0  0  0  0  0  0  0  0  0  0  0  0
    0.7145    1.6500    0.0000 C   0  0  0  0  0  0  0  0  0  0  0  0
    0.0000    2.0625    0.0000 C   0  0  0  0  0  0  0  0  0  0  0  0
   -1.4289    2.0625    0.0000 S   0  0  0  0  0  0  0  0  0  0  0  0
   -1.4289    0.4125    0.0000 N   0  0  0  0  0  0  0  0  0  0  0  0
   -2.1434    1.6500    0.0000 C   0  0  0  0  0  0  0  0  0  0  0  0
   -1.4289    2.8875    0.0000 O   0  0  0  0  0  0  0  0  0  0  0  0
   -0.7145    2.4750    0.0000 O   0  0  0  0  0  0  0  0  0  0  0  0
   -2.8579    2.0625    0.0000 C   0  0  0  0  0  0  0  0  0  0  0  0
   -2.3569    0.8531    0.0000 C   0  0  0  0  0  0  0  0  0  0  0  0
    0.0000   -2.0625    0.0000 N   0  0  0  0  0  0  0  0  0  0  0  0
    2.8579    0.4125    0.0000 O   0  0  0  0  0  0  0  0  0  0  0  0
    0.7145   -3.3000    0.0000 C   0  0  0  0  0  0  0  0  0  0  0  0
    2.1434    1.6500    0.0000 N   0  0  0  0  0  0  0  0  0  0  0  0
    2.8579    2.0625    0.0000 C   0  0  0  0  0  0  0  0  0  0  0  0
    2.8579    2.8875    0.0000 C   0  0  0  0  0  0  0  0  0  0  0  0
    2.1434    3.3000    0.0000 C   0  0  0  0  0  0  0  0  0  0  0  0
    1.4289    2.8875    0.0000 C   0  0  0  0  0  0  0  0  0  0  0  0
    1.4289    2.0625    0.0000 C   0  0  0  0  0  0  0  0  0  0  0  0
 24  1  1  0  0  0  0
  1  2  4  0  0  0  0
  2  3  4  0  0  0  0
  3  4  4  0  0  0  0
  4  5  4  0  0  0  0
  5  6  4  0  0  0  0
  6  1  4  0  0  0  0
  2  7  1  0  0  0  0
 30  8  1  0  0  0  0
  8  9  4  0  0  0  0
  8 10  4  0  0  0  0
 10 11  4  0  0  0  0
 11 12  4  0  0  0  0
 12 13  4  0  0  0  0
 13  9  4  0  0  0  0
 10 14  1  0  0  0  0
 13 15  1  0  0  0  0
 15 16  1  0  0  0  0
 17 18  4  0  0  0  0
 18 19  4  0  0  0  0
 19 20  4  0  0  0  0
 20 21  4  0  0  0  0
 21 22  4  0  0  0  0
 22 17  4  0  0  0  0
 17 23  1  0  0  0  0
 18 24  1  0  0  0  0
 23 25  1  0  0  0  0
 23 26  2  0  0  0  0
 23 27  2  0  0  0  0
 25 28  1  0  0  0  0
 25 29  1  0  0  0  0
  5 30  1  0  0  0  0
 16 31  2  0  0  0  0
 14 32  1  0  0  0  0
 16 33  1  0  0  0  0
 33 34  1  0  0  0  0
 34 35  1  0  0  0  0
 35 36  1  0  0  0  0
 36 37  1  0  0  0  0
 37 38  1  0  0  0  0
 38 33  1  0  0  0  0
M  END
> <From>
www.bindingDB.org

> <BindingDB Reactant_set_id>
556954

> <Ligand InChI>
InChI=1S/C27H32ClN5O4S/c1-18(2)38(35,36)24-10-6-5-9-21(24)30-26-20(28)17-29-27(32-26)31-22-15-19(11-12-23(22)37-3)16-25(34)33-13-7-4-8-14-33/h5-6,9-12,15,17-18H,4,7-8,13-14,16H2,1-3H3,(H2,29,30,31,32)

> <Ligand InChI Key>
GBMSCRUJZVOJHK-UHFFFAOYSA-N

> <BindingDB MonomerID>
291976

> <BindingDB Ligand Name>
US10100019, Example 46

> <Target Name Assigned by Curator or DataSource>
ALK tyrosine kinase receptor

> <Target Source Organism According to Curator or DataSource>
Homo sapiens

> <Ki (nM)>


> <IC50 (nM)>
 190

> <Kd (nM)>


> <EC50 (nM)>


> <kon (M-1-s-1)>


> <koff (s-1)>


> <pH>


> <Temp C>
25.00

> <Curation/DataSource>
US Patent

> <Article DOI>
10.1016/j.bmcl.2006.04.076

> <PMID>


> <PubChem AID>


> <Patent Number>
US10100019

> <Authors>
Kim, P; Kim, HR; Cho, SY; Ha, JD; Jung, HJ; Yun, CS; Hwang, JY; Park, CH; Lee, CO; Ahn, S; Chae, CH

> <Institution>
Korea Research Institute of Chemical Technology

> <Link to Ligand in BindingDB>
http://www.bindingdb.org/bind/chemsearch/marvin/MolStructure.jsp?monomerid=291976

> <Link to Ligand-Target Pair in BindingDB>
http://www.bindingdb.org/jsp/dbsearch/PrimarySearch_ki.jsp?energyterm=kJ/mole&tag=pol&polymerid=5809&target=ALK+tyrosine+kinase+receptor&column=ki&startPg=0&Increment=50&submit=Search

> <Link to Ligand-Target Pair in BindingDB>
http://www.bindingdb.org/jsp/dbsearch/PrimarySearch_ki.jsp?energyterm=kJ/mole&tag=r21&monomerid=291976&enzyme=ALK+tyrosine+kinase+receptor&column=ki&startPg=0&Increment=50&submit=Search

> <Ligand HET ID in PDB>


> <PDB ID(s) for Ligand-Target Complex>


> <PubChem CID>
134449954

> <PubChem SID>
381612275

> <ChEBI ID of Ligand>


> <ChEMBL ID of Ligand>


> <DrugBank ID of Ligand>


> <IUPHAR_GRAC ID of Ligand>


> <KEGG ID of Ligand>


> <ZINC ID of Ligand>


> <Number of Protein Chains in Target (>1 implies a multichain complex)>
1

> <BindingDB Target Chain Sequence>
MGAIGLLWLLPLLLSTAAVGSGMGTGQRAGSPAAGPPLQPREPLSYSRLQRKSLAVDFVVPSLFRVYARDLLLPPSSSELKAGRPEARGSLALDCAPLLRLLGPAPGVSWTAGSPAPAEARTLSRVLKGGSVRKLRRAKQLVLELGEEAILEGCVGPPGEAAVGLLQFNLSELFSWWIRQGEGRLRIRLMPEKKASEVGREGRLSAAIRASQPRLLFQIFGTGHSSLESPTNMPSPSPDYFTWNLTWIMKDSFPFLSHRSRYGLECSFDFPCELEYSPPLHDLRNQSWSWRRIPSEEASQMDLLDGPGAERSKEMPRGSFLLLNTSADSKHTILSPWMRSSSEHCTLAVSVHRHLQPSGRYIAQLLPHNEAAREILLMPTPGKHGWTVLQGRIGRPDNPFRVALEYISSGNRSLSAVDFFALKNCSEGTSPGSKMALQSSFTCWNGTVLQLGQACDFHQDCAQGEDESQMCRKLPVGFYCNFEDGFCGWTQGTLSPHTPQWQVRTLKDARFQDHQDHALLLSTTDVPASESATVTSATFPAPIKSSPCELRMSWLIRGVLRGNVSLVLVENKTGKEQGRMVWHVAAYEGLSLWQWMVLPLLDVSDRFWLQMVAWWGQGSRAIVAFDNISISLDCYLTISGEDKILQNTAPKSRNLFERNPNKELKPGENSPRQTPIFDPTVHWLFTTCGASGPHGPTQAQCNNAYQNSNLSVEVGSEGPLKGIQIWKVPATDTYSISGYGAAGGKGGKNTMMRSHGVSVLGIFNLEKDDMLYILVGQQGEDACPSTNQLIQKVCIGENNVIEEEIRVNRSVHEWAGGGGGGGGATYVFKMKDGVPVPLIIAAGGGGRAYGAKTDTFHPERLENNSSVLGLNGNSGAAGGGGGWNDNTSLLWAGKSLQEGATGGHSCPQAMKKWGWETRGGFGGGGGGCSSGGGGGGYIGGNAASNNDPEMDGEDGVSFISPLGILYTPALKVMEGHGEVNIKHYLNCSHCEVDECHMDPESHKVICFCDHGTVLAEDGVSCIVSPTPEPHLPLSLILSVVTSALVAALVLAFSGIMIVYRRKHQELQAMQMELQSPEYKLSKLRTSTIMTDYNPNYCFAGKTSSISDLKEVPRKNITLIRGLGHGAFGEVYEGQVSGMPNDPSPLQVAVKTLPEVCSEQDELDFLMEALIISKFNHQNIVRCIGVSLQSLPRFILLELMAGGDLKSFLRETRPRPSQPSSLAMLDLLHVARDIACGCQYLEENHFIHRDIAARNCLLTCPGPGRVAKIGDFGMARDIYRASYYRKGGCAMLPVKWMPPEAFMEGIFTSKTDTWSFGVLLWEIFSLGYMPYPSKSNQEVLEFVTSGGRMDPPKNCPGPVYRIMTQCWQHQPEDRPNFAIILERIEYCTQDPDVINTALPIEYGPLVEEEEKVPVRPKDPEGVPPLLVSQQAKREEERSPAAPPPLPTTSSGKAAKKPTAAEISVRVPRGPAVEGGHVNMAFSQSNPPSELHKVHGSRNKPTSLWNPTYGSWFTEKPTKKNNPIAKKEPHDRGNLGLEGSCTVPPNVATGRLPGASLLLEPSSLTANMKEVPLFRLRHFPCGNVNYGYQQQGLPLEAATAPGAGHYEDTILKSKNSMNQPGP

> <PDB ID(s) of Target Chain>
2XB7,2XBA,3AOX,5FTO,5FTQ,6E0R,6EBW,6EDL,6MX8

> <UniProt (SwissProt) Recommended Name of Target Chain>
ALK tyrosine kinase receptor

> <UniProt (SwissProt) Entry Name of Target Chain>
ALK_HUMAN

> <UniProt (SwissProt) Primary ID of Target Chain>
Q9UM73

> <UniProt (SwissProt) Secondary ID(s) of Target Chain>
Q4ZFX9,Q53QQ6,Q53RZ4,Q59FI3,Q9Y4K6

> <UniProt (SwissProt) Alternative ID(s) of Target Chain>


> <UniProt (TrEMBL) Submitted Name of Target Chain>


> <UniProt (TrEMBL) Entry Name of Target Chain>


> <UniProt (TrEMBL) Primary ID of Target Chain>


> <UniProt (TrEMBL) Secondary ID(s) of Target Chain>


> <UniProt (TrEMBL) Alternative ID(s) of Target Chain>


$$$$
00178001.cdx
  Mrv0541 02211919242D          

 36 38  0  0  0  0            999 V2000
   -2.1434   -0.2062    0.0000 C   0  0  0  0  0  0  0  0  0  0  0  0
   -2.8579   -0.6187    0.0000 C   0  0  0  0  0  0  0  0  0  0  0  0
   -2.8579   -1.4437    0.0000 C   0  0  0  0  0  0  0  0  0  0  0  0
   -2.1434   -1.8563    0.0000 N   0  0  0  0  0  0  0  0  0  0  0  0
   -1.4289   -1.4437    0.0000 C   0  0  0  0  0  0  0  0  0  0  0  0
   -1.4289   -0.6187    0.0000 N   0  0  0  0  0  0  0  0  0  0  0  0
   -3.5724   -0.2062    0.0000 Cl  0  0  0  0  0  0  0  0  0  0  0  0
    0.0000   -1.4437    0.0000 C   0  0  0  0  0  0  0  0  0  0  0  0
    0.0000   -0.6187    0.0000 C   0  0  0  0  0  0  0  0  0  0  0  0
    0.7145   -1.8563    0.0000 C   0  0  0  0  0  0  0  0  0  0  0  0
    1.4289   -1.4437    0.0000 C   0  0  0  0  0  0  0  0  0  0  0  0
    1.4289   -0.6187    0.0000 C   0  0  0  0  0  0  0  0  0  0  0  0
    0.7145   -0.2062    0.0000 C   0  0  0  0  0  0  0  0  0  0  0  0
    0.7145   -2.6812    0.0000 O   0  0  0  0  0  0  0  0  0  0  0  0
    0.7145    0.6187    0.0000 C   0  0  0  0  0  0  0  0  0  0  0  0
    1.4289    1.0313    0.0000 C   0  0  0  0  0  0  0  0  0  0  0  0
   -1.4289    1.8563    0.0000 C   0  0  0  0  0  0  0  0  0  0  0  0
   -1.4289    1.0313    0.0000 C   0  0  0  0  0  0  0  0  0  0  0  0
   -0.7145    0.6187    0.0000 C   0  0  0  0  0  0  0  0  0  0  0  0
    0.0000    1.0313    0.0000 C   0  0  0  0  0  0  0  0  0  0  0  0
    0.0000    1.8563    0.0000 C   0  0  0  0  0  0  0  0  0  0  0  0
   -0.7145    2.2687    0.0000 C   0  0  0  0  0  0  0  0  0  0  0  0
   -2.1434    2.2687    0.0000 S   0  0  0  0  0  0  0  0  0  0  0  0
   -2.1434    0.6187    0.0000 N   0  0  0  0  0  0  0  0  0  0  0  0
   -2.8579    1.8563    0.0000 C   0  0  0  0  0  0  0  0  0  0  0  0
   -2.1434    3.0938    0.0000 O   0  0  0  0  0  0  0  0  0  0  0  0
   -1.4289    2.6812    0.0000 O   0  0  0  0  0  0  0  0  0  0  0  0
   -3.5724    2.2687    0.0000 C   0  0  0  0  0  0  0  0  0  0  0  0
   -3.0714    1.0594    0.0000 C   0  0  0  0  0  0  0  0  0  0  0  0
   -0.7145   -1.8563    0.0000 N   0  0  0  0  0  0  0  0  0  0  0  0
    2.1434    0.6187    0.0000 O   0  0  0  0  0  0  0  0  0  0  0  0
    0.0000   -3.0938    0.0000 C   0  0  0  0  0  0  0  0  0  0  0  0
    1.4289    1.8563    0.0000 N   0  0  0  0  0  0  0  0  0  0  0  0
    2.1434    2.2687    0.0000 C   0  0  0  0  0  0  0  0  0  0  0  0
    2.8579    1.8563    0.0000 C   0  0  0  0  0  0  0  0  0  0  0  0
    3.5724    2.2687    0.0000 O   0  0  0  0  0  0  0  0  0  0  0  0
 24  1  1  0  0  0  0
  1  2  4  0  0  0  0
  2  3  4  0  0  0  0
  3  4  4  0  0  0  0
  4  5  4  0  0  0  0
  5  6  4  0  0  0  0
  6  1  4  0  0  0  0
  2  7  1  0  0  0  0
 30  8  1  0  0  0  0
  8  9  4  0  0  0  0
  8 10  4  0  0  0  0
 10 11  4  0  0  0  0
 11 12  4  0  0  0  0
 12 13  4  0  0  0  0
 13  9  4  0  0  0  0
 10 14  1  0  0  0  0
 13 15  1  0  0  0  0
 15 16  1  0  0  0  0
 17 18  4  0  0  0  0
 18 19  4  0  0  0  0
 19 20  4  0  0  0  0
 20 21  4  0  0  0  0
 21 22  4  0  0  0  0
 22 17  4  0  0  0  0
 17 23  1  0  0  0  0
 18 24  1  0  0  0  0
 23 25  1  0  0  0  0
 23 26  2  0  0  0  0
 23 27  2  0  0  0  0
 25 28  1  0  0  0  0
 25 29  1  0  0  0  0
  5 30  1  0  0  0  0
 16 31  2  0  0  0  0
 14 32  1  0  0  0  0
 16 33  1  0  0  0  0
 33 34  1  0  0  0  0
 34 35  1  0  0  0  0
 35 36  1  0  0  0  0
M  END
> <From>
www.bindingDB.org

> <BindingDB Reactant_set_id>
556955

> <Ligand InChI>
InChI=1S/C24H28ClN5O5S/c1-15(2)36(33,34)21-7-5-4-6-18(21)28-23-17(25)14-27-24(30-23)29-19-12-16(8-9-20(19)35-3)13-22(32)26-10-11-31/h4-9,12,14-15,31H,10-11,13H2,1-3H3,(H,26,32)(H2,27,28,29,30)

> <Ligand InChI Key>
KCLWQRHOAOMHIU-UHFFFAOYSA-N

> <BindingDB MonomerID>
291977

> <BindingDB Ligand Name>
US10100019, Example 47

> <Target Name Assigned by Curator or DataSource>
ALK tyrosine kinase receptor

> <Target Source Organism According to Curator or DataSource>
Homo sapiens

> <Ki (nM)>


> <IC50 (nM)>
 12.0

> <Kd (nM)>


> <EC50 (nM)>


> <kon (M-1-s-1)>


> <koff (s-1)>


> <pH>


> <Temp C>
25.00

> <Curation/DataSource>
US Patent

> <Article DOI>
10.1016/j.bmcl.2006.04.076

> <PMID>


> <PubChem AID>


> <Patent Number>
US10100019

> <Authors>
Kim, P; Kim, HR; Cho, SY; Ha, JD; Jung, HJ; Yun, CS; Hwang, JY; Park, CH; Lee, CO; Ahn, S; Chae, CH

> <Institution>
Korea Research Institute of Chemical Technology

> <Link to Ligand in BindingDB>
http://www.bindingdb.org/bind/chemsearch/marvin/MolStructure.jsp?monomerid=291977

> <Link to Ligand-Target Pair in BindingDB>
http://www.bindingdb.org/jsp/dbsearch/PrimarySearch_ki.jsp?energyterm=kJ/mole&tag=pol&polymerid=5809&target=ALK+tyrosine+kinase+receptor&column=ki&startPg=0&Increment=50&submit=Search

> <Link to Ligand-Target Pair in BindingDB>
http://www.bindingdb.org/jsp/dbsearch/PrimarySearch_ki.jsp?energyterm=kJ/mole&tag=r21&monomerid=291977&enzyme=ALK+tyrosine+kinase+receptor&column=ki&startPg=0&Increment=50&submit=Search

> <Ligand HET ID in PDB>


> <PDB ID(s) for Ligand-Target Complex>


> <PubChem CID>
134449955

> <PubChem SID>
381612276

> <ChEBI ID of Ligand>


> <ChEMBL ID of Ligand>


> <DrugBank ID of Ligand>


> <IUPHAR_GRAC ID of Ligand>


> <KEGG ID of Ligand>
C04080

> <ZINC ID of Ligand>


> <Number of Protein Chains in Target (>1 implies a multichain complex)>
1

> <BindingDB Target Chain Sequence>
MGAIGLLWLLPLLLSTAAVGSGMGTGQRAGSPAAGPPLQPREPLSYSRLQRKSLAVDFVVPSLFRVYARDLLLPPSSSELKAGRPEARGSLALDCAPLLRLLGPAPGVSWTAGSPAPAEARTLSRVLKGGSVRKLRRAKQLVLELGEEAILEGCVGPPGEAAVGLLQFNLSELFSWWIRQGEGRLRIRLMPEKKASEVGREGRLSAAIRASQPRLLFQIFGTGHSSLESPTNMPSPSPDYFTWNLTWIMKDSFPFLSHRSRYGLECSFDFPCELEYSPPLHDLRNQSWSWRRIPSEEASQMDLLDGPGAERSKEMPRGSFLLLNTSADSKHTILSPWMRSSSEHCTLAVSVHRHLQPSGRYIAQLLPHNEAAREILLMPTPGKHGWTVLQGRIGRPDNPFRVALEYISSGNRSLSAVDFFALKNCSEGTSPGSKMALQSSFTCWNGTVLQLGQACDFHQDCAQGEDESQMCRKLPVGFYCNFEDGFCGWTQGTLSPHTPQWQVRTLKDARFQDHQDHALLLSTTDVPASESATVTSATFPAPIKSSPCELRMSWLIRGVLRGNVSLVLVENKTGKEQGRMVWHVAAYEGLSLWQWMVLPLLDVSDRFWLQMVAWWGQGSRAIVAFDNISISLDCYLTISGEDKILQNTAPKSRNLFERNPNKELKPGENSPRQTPIFDPTVHWLFTTCGASGPHGPTQAQCNNAYQNSNLSVEVGSEGPLKGIQIWKVPATDTYSISGYGAAGGKGGKNTMMRSHGVSVLGIFNLEKDDMLYILVGQQGEDACPSTNQLIQKVCIGENNVIEEEIRVNRSVHEWAGGGGGGGGATYVFKMKDGVPVPLIIAAGGGGRAYGAKTDTFHPERLENNSSVLGLNGNSGAAGGGGGWNDNTSLLWAGKSLQEGATGGHSCPQAMKKWGWETRGGFGGGGGGCSSGGGGGGYIGGNAASNNDPEMDGEDGVSFISPLGILYTPALKVMEGHGEVNIKHYLNCSHCEVDECHMDPESHKVICFCDHGTVLAEDGVSCIVSPTPEPHLPLSLILSVVTSALVAALVLAFSGIMIVYRRKHQELQAMQMELQSPEYKLSKLRTSTIMTDYNPNYCFAGKTSSISDLKEVPRKNITLIRGLGHGAFGEVYEGQVSGMPNDPSPLQVAVKTLPEVCSEQDELDFLMEALIISKFNHQNIVRCIGVSLQSLPRFILLELMAGGDLKSFLRETRPRPSQPSSLAMLDLLHVARDIACGCQYLEENHFIHRDIAARNCLLTCPGPGRVAKIGDFGMARDIYRASYYRKGGCAMLPVKWMPPEAFMEGIFTSKTDTWSFGVLLWEIFSLGYMPYPSKSNQEVLEFVTSGGRMDPPKNCPGPVYRIMTQCWQHQPEDRPNFAIILERIEYCTQDPDVINTALPIEYGPLVEEEEKVPVRPKDPEGVPPLLVSQQAKREEERSPAAPPPLPTTSSGKAAKKPTAAEISVRVPRGPAVEGGHVNMAFSQSNPPSELHKVHGSRNKPTSLWNPTYGSWFTEKPTKKNNPIAKKEPHDRGNLGLEGSCTVPPNVATGRLPGASLLLEPSSLTANMKEVPLFRLRHFPCGNVNYGYQQQGLPLEAATAPGAGHYEDTILKSKNSMNQPGP

> <PDB ID(s) of Target Chain>
2XB7,2XBA,3AOX,5FTO,5FTQ,6E0R,6EBW,6EDL,6MX8

> <UniProt (SwissProt) Recommended Name of Target Chain>
ALK tyrosine kinase receptor

> <UniProt (SwissProt) Entry Name of Target Chain>
ALK_HUMAN

> <UniProt (SwissProt) Primary ID of Target Chain>
Q9UM73

> <UniProt (SwissProt) Secondary ID(s) of Target Chain>
Q4ZFX9,Q53QQ6,Q53RZ4,Q59FI3,Q9Y4K6

> <UniProt (SwissProt) Alternative ID(s) of Target Chain>


> <UniProt (TrEMBL) Submitted Name of Target Chain>


> <UniProt (TrEMBL) Entry Name of Target Chain>


> <UniProt (TrEMBL) Primary ID of Target Chain>


> <UniProt (TrEMBL) Secondary ID(s) of Target Chain>


> <UniProt (TrEMBL) Alternative ID(s) of Target Chain>


$$$$
00183001.cdx
  Mrv0541 03161900122D          

 38 41  0  0  0  0            999 V2000
   -1.9321   -0.1562    0.0000 C   0  0  0  0  0  0  0  0  0  0  0  0
   -2.6466   -0.5687    0.0000 C   0  0  0  0  0  0  0  0  0  0  0  0
   -2.6466   -1.3937    0.0000 C   0  0  0  0  0  0  0  0  0  0  0  0
   -1.9321   -1.8062    0.0000 N   0  0  0  0  0  0  0  0  0  0  0  0
   -1.2176   -1.3937    0.0000 C   0  0  0  0  0  0  0  0  0  0  0  0
   -1.2176   -0.5687    0.0000 N   0  0  0  0  0  0  0  0  0  0  0  0
   -3.3610   -0.1562    0.0000 Cl  0  0  0  0  0  0  0  0  0  0  0  0
   -0.5032   -1.8062    0.0000 N   0  0  0  0  0  0  0  0  0  0  0  0
   -1.2176    1.9063    0.0000 C   0  0  0  0  0  0  0  0  0  0  0  0
   -1.2176    1.0813    0.0000 C   0  0  0  0  0  0  0  0  0  0  0  0
   -0.5032    0.6688    0.0000 C   0  0  0  0  0  0  0  0  0  0  0  0
    0.2113    1.0813    0.0000 C   0  0  0  0  0  0  0  0  0  0  0  0
    0.2113    1.9063    0.0000 C   0  0  0  0  0  0  0  0  0  0  0  0
   -0.5032    2.3188    0.0000 C   0  0  0  0  0  0  0  0  0  0  0  0
   -1.9321    2.3188    0.0000 S   0  0  0  0  0  0  0  0  0  0  0  0
   -1.5196    3.0333    0.0000 O   0  0  0  0  0  0  0  0  0  0  0  0
   -2.3446    1.6043    0.0000 O   0  0  0  0  0  0  0  0  0  0  0  0
   -2.6466    2.7313    0.0000 C   0  0  0  0  0  0  0  0  0  0  0  0
   -2.6466    3.5563    0.0000 C   0  0  0  0  0  0  0  0  0  0  0  0
   -3.3610    2.3188    0.0000 C   0  0  0  0  0  0  0  0  0  0  0  0
   -1.9321    0.6688    0.0000 N   0  0  0  0  0  0  0  0  0  0  0  0
    0.2937   -1.5927    0.0000 C   0  0  0  0  0  0  0  0  0  0  0  0
    0.5073   -0.7958    0.0000 C   0  0  0  0  0  0  0  0  0  0  0  0
    0.8771   -2.1760    0.0000 C   0  0  0  0  0  0  0  0  0  0  0  0
    1.6740   -1.9625    0.0000 C   0  0  0  0  0  0  0  0  0  0  0  0
    1.8875   -1.1656    0.0000 C   0  0  0  0  0  0  0  0  0  0  0  0
    1.3041   -0.5823    0.0000 C   0  0  0  0  0  0  0  0  0  0  0  0
    0.6636   -2.9729    0.0000 O   0  0  0  0  0  0  0  0  0  0  0  0
    1.2469   -3.5563    0.0000 C   0  0  0  0  0  0  0  0  0  0  0  0
    1.5177    0.2146    0.0000 C   0  0  0  0  0  0  0  0  0  0  0  0
    2.3146    0.4281    0.0000 C   0  0  0  0  0  0  0  0  0  0  0  0
    2.8979   -0.1552    0.0000 O   0  0  0  0  0  0  0  0  0  0  0  0
    2.5281    1.2250    0.0000 N   0  0  0  0  0  0  0  0  0  0  0  0
    3.2797    1.5651    0.0000 C   0  0  0  0  0  0  0  0  0  0  0  0
    3.3610    2.3861    0.0000 C   0  0  0  0  0  0  0  0  0  0  0  0
    2.6907    2.8670    0.0000 N   0  0  0  0  0  0  0  0  0  0  0  0
    1.9391    2.5269    0.0000 C   0  0  0  0  0  0  0  0  0  0  0  0
    1.8577    1.7060    0.0000 C   0  0  0  0  0  0  0  0  0  0  0  0
 21  1  1  0  0  0  0
  1  2  4  0  0  0  0
  2  3  4  0  0  0  0
  3  4  4  0  0  0  0
  4  5  4  0  0  0  0
  5  6  4  0  0  0  0
  6  1  4  0  0  0  0
  2  7  1  0  0  0  0
  5  8  1  0  0  0  0
  9 10  4  0  0  0  0
 10 11  4  0  0  0  0
 11 12  4  0  0  0  0
 12 13  4  0  0  0  0
 13 14  4  0  0  0  0
 14  9  4  0  0  0  0
  9 15  1  0  0  0  0
 15 16  2  0  0  0  0
 15 17  2  0  0  0  0
 15 18  1  0  0  0  0
 18 19  1  0  0  0  0
 18 20  1  0  0  0  0
 10 21  1  0  0  0  0
  8 22  1  0  0  0  0
 22 23  4  0  0  0  0
 22 24  4  0  0  0  0
 24 25  4  0  0  0  0
 25 26  4  0  0  0  0
 26 27  4  0  0  0  0
 27 23  4  0  0  0  0
 24 28  1  0  0  0  0
 28 29  1  0  0  0  0
 27 30  1  0  0  0  0
 30 31  1  0  0  0  0
 31 33  1  0  0  0  0
 31 32  2  0  0  0  0
 33 34  1  0  0  0  0
 34 35  1  0  0  0  0
 35 36  1  0  0  0  0
 36 37  1  0  0  0  0
 37 38  1  0  0  0  0
 38 33  1  0  0  0  0
M  END
> <From>
www.bindingDB.org

> <BindingDB Reactant_set_id>
556956

> <Ligand InChI>
InChI=1S/C26H31ClN6O4S/c1-17(2)38(35,36)23-7-5-4-6-20(23)30-25-19(27)16-29-26(32-25)31-21-14-18(8-9-22(21)37-3)15-24(34)33-12-10-28-11-13-33/h4-9,14,16-17,28H,10-13,15H2,1-3H3,(H2,29,30,31,32)

> <Ligand InChI Key>
ODXOPUPUEPJJDN-UHFFFAOYSA-N

> <BindingDB MonomerID>
291978

> <BindingDB Ligand Name>
US10100019, Example 48

> <Target Name Assigned by Curator or DataSource>
ALK tyrosine kinase receptor

> <Target Source Organism According to Curator or DataSource>
Homo sapiens

> <Ki (nM)>


> <IC50 (nM)>
 4.20

> <Kd (nM)>


> <EC50 (nM)>


> <kon (M-1-s-1)>


> <koff (s-1)>


> <pH>


> <Temp C>
25.00

> <Curation/DataSource>
US Patent

> <Article DOI>
10.1016/j.bmcl.2006.04.076

> <PMID>


> <PubChem AID>


> <Patent Number>
US10100019

> <Authors>
Kim, P; Kim, HR; Cho, SY; Ha, JD; Jung, HJ; Yun, CS; Hwang, JY; Park, CH; Lee, CO; Ahn, S; Chae, CH

> <Institution>
Korea Research Institute of Chemical Technology

> <Link to Ligand in BindingDB>
http://www.bindingdb.org/bind/chemsearch/marvin/MolStructure.jsp?monomerid=291978

> <Link to Ligand-Target Pair in BindingDB>
http://www.bindingdb.org/jsp/dbsearch/PrimarySearch_ki.jsp?energyterm=kJ/mole&tag=pol&polymerid=5809&target=ALK+tyrosine+kinase+receptor&column=ki&startPg=0&Increment=50&submit=Search

> <Link to Ligand-Target Pair in BindingDB>
http://www.bindingdb.org/jsp/dbsearch/PrimarySearch_ki.jsp?energyterm=kJ/mole&tag=r21&monomerid=291978&enzyme=ALK+tyrosine+kinase+receptor&column=ki&startPg=0&Increment=50&submit=Search

> <Ligand HET ID in PDB>


> <PDB ID(s) for Ligand-Target Complex>


> <PubChem CID>
134451601

> <PubChem SID>
381612277

> <ChEBI ID of Ligand>


> <ChEMBL ID of Ligand>


> <DrugBank ID of Ligand>


> <IUPHAR_GRAC ID of Ligand>


> <KEGG ID of Ligand>


> <ZINC ID of Ligand>


> <Number of Protein Chains in Target (>1 implies a multichain complex)>
1

> <BindingDB Target Chain Sequence>
MGAIGLLWLLPLLLSTAAVGSGMGTGQRAGSPAAGPPLQPREPLSYSRLQRKSLAVDFVVPSLFRVYARDLLLPPSSSELKAGRPEARGSLALDCAPLLRLLGPAPGVSWTAGSPAPAEARTLSRVLKGGSVRKLRRAKQLVLELGEEAILEGCVGPPGEAAVGLLQFNLSELFSWWIRQGEGRLRIRLMPEKKASEVGREGRLSAAIRASQPRLLFQIFGTGHSSLESPTNMPSPSPDYFTWNLTWIMKDSFPFLSHRSRYGLECSFDFPCELEYSPPLHDLRNQSWSWRRIPSEEASQMDLLDGPGAERSKEMPRGSFLLLNTSADSKHTILSPWMRSSSEHCTLAVSVHRHLQPSGRYIAQLLPHNEAAREILLMPTPGKHGWTVLQGRIGRPDNPFRVALEYISSGNRSLSAVDFFALKNCSEGTSPGSKMALQSSFTCWNGTVLQLGQACDFHQDCAQGEDESQMCRKLPVGFYCNFEDGFCGWTQGTLSPHTPQWQVRTLKDARFQDHQDHALLLSTTDVPASESATVTSATFPAPIKSSPCELRMSWLIRGVLRGNVSLVLVENKTGKEQGRMVWHVAAYEGLSLWQWMVLPLLDVSDRFWLQMVAWWGQGSRAIVAFDNISISLDCYLTISGEDKILQNTAPKSRNLFERNPNKELKPGENSPRQTPIFDPTVHWLFTTCGASGPHGPTQAQCNNAYQNSNLSVEVGSEGPLKGIQIWKVPATDTYSISGYGAAGGKGGKNTMMRSHGVSVLGIFNLEKDDMLYILVGQQGEDACPSTNQLIQKVCIGENNVIEEEIRVNRSVHEWAGGGGGGGGATYVFKMKDGVPVPLIIAAGGGGRAYGAKTDTFHPERLENNSSVLGLNGNSGAAGGGGGWNDNTSLLWAGKSLQEGATGGHSCPQAMKKWGWETRGGFGGGGGGCSSGGGGGGYIGGNAASNNDPEMDGEDGVSFISPLGILYTPALKVMEGHGEVNIKHYLNCSHCEVDECHMDPESHKVICFCDHGTVLAEDGVSCIVSPTPEPHLPLSLILSVVTSALVAALVLAFSGIMIVYRRKHQELQAMQMELQSPEYKLSKLRTSTIMTDYNPNYCFAGKTSSISDLKEVPRKNITLIRGLGHGAFGEVYEGQVSGMPNDPSPLQVAVKTLPEVCSEQDELDFLMEALIISKFNHQNIVRCIGVSLQSLPRFILLELMAGGDLKSFLRETRPRPSQPSSLAMLDLLHVARDIACGCQYLEENHFIHRDIAARNCLLTCPGPGRVAKIGDFGMARDIYRASYYRKGGCAMLPVKWMPPEAFMEGIFTSKTDTWSFGVLLWEIFSLGYMPYPSKSNQEVLEFVTSGGRMDPPKNCPGPVYRIMTQCWQHQPEDRPNFAIILERIEYCTQDPDVINTALPIEYGPLVEEEEKVPVRPKDPEGVPPLLVSQQAKREEERSPAAPPPLPTTSSGKAAKKPTAAEISVRVPRGPAVEGGHVNMAFSQSNPPSELHKVHGSRNKPTSLWNPTYGSWFTEKPTKKNNPIAKKEPHDRGNLGLEGSCTVPPNVATGRLPGASLLLEPSSLTANMKEVPLFRLRHFPCGNVNYGYQQQGLPLEAATAPGAGHYEDTILKSKNSMNQPGP

> <PDB ID(s) of Target Chain>
2XB7,2XBA,3AOX,5FTO,5FTQ,6E0R,6EBW,6EDL,6MX8

> <UniProt (SwissProt) Recommended Name of Target Chain>
ALK tyrosine kinase receptor

> <UniProt (SwissProt) Entry Name of Target Chain>
ALK_HUMAN

> <UniProt (SwissProt) Primary ID of Target Chain>
Q9UM73

> <UniProt (SwissProt) Secondary ID(s) of Target Chain>
Q4ZFX9,Q53QQ6,Q53RZ4,Q59FI3,Q9Y4K6

> <UniProt (SwissProt) Alternative ID(s) of Target Chain>


> <UniProt (TrEMBL) Submitted Name of Target Chain>


> <UniProt (TrEMBL) Entry Name of Target Chain>


> <UniProt (TrEMBL) Primary ID of Target Chain>


> <UniProt (TrEMBL) Secondary ID(s) of Target Chain>


> <UniProt (TrEMBL) Alternative ID(s) of Target Chain>


$$$$
00179001.cdx
  Mrv0541 02211919242D          

 39 42  0  0  0  0            999 V2000
   -2.5006    1.6500    0.0000 C   0  0  0  0  0  0  0  0  0  0  0  0
   -2.5006    0.8250    0.0000 C   0  0  0  0  0  0  0  0  0  0  0  0
   -3.2151    0.4125    0.0000 C   0  0  0  0  0  0  0  0  0  0  0  0
   -3.9296    0.8250    0.0000 C   0  0  0  0  0  0  0  0  0  0  0  0
   -3.9296    1.6500    0.0000 C   0  0  0  0  0  0  0  0  0  0  0  0
   -3.2151    2.0625    0.0000 C   0  0  0  0  0  0  0  0  0  0  0  0
   -1.7862    2.0625    0.0000 S   0  0  0  0  0  0  0  0  0  0  0  0
   -1.7862    2.8875    0.0000 O   0  0  0  0  0  0  0  0  0  0  0  0
   -1.0717    2.4750    0.0000 O   0  0  0  0  0  0  0  0  0  0  0  0
   -1.7862    0.4125    0.0000 N   0  0  0  0  0  0  0  0  0  0  0  0
   -1.7862   -0.4125    0.0000 C   0  0  0  0  0  0  0  0  0  0  0  0
   -2.5006   -0.8250    0.0000 C   0  0  0  0  0  0  0  0  0  0  0  0
   -2.5006   -1.6500    0.0000 C   0  0  0  0  0  0  0  0  0  0  0  0
   -1.7862   -2.0625    0.0000 N   0  0  0  0  0  0  0  0  0  0  0  0
   -1.0717   -1.6500    0.0000 C   0  0  0  0  0  0  0  0  0  0  0  0
   -1.0717   -0.8250    0.0000 N   0  0  0  0  0  0  0  0  0  0  0  0
   -3.2151   -0.4125    0.0000 Cl  0  0  0  0  0  0  0  0  0  0  0  0
   -0.3572   -2.0625    0.0000 N   0  0  0  0  0  0  0  0  0  0  0  0
    0.3572   -1.6500    0.0000 C   0  0  0  0  0  0  0  0  0  0  0  0
    0.3572   -0.8250    0.0000 C   0  0  0  0  0  0  0  0  0  0  0  0
    1.0717   -2.0625    0.0000 C   0  0  0  0  0  0  0  0  0  0  0  0
    1.7862   -1.6500    0.0000 C   0  0  0  0  0  0  0  0  0  0  0  0
    1.7862   -0.8250    0.0000 C   0  0  0  0  0  0  0  0  0  0  0  0
    1.0717   -0.4125    0.0000 C   0  0  0  0  0  0  0  0  0  0  0  0
    1.0717   -2.8875    0.0000 O   0  0  0  0  0  0  0  0  0  0  0  0
    1.0717    0.4125    0.0000 C   0  0  0  0  0  0  0  0  0  0  0  0
    1.7862    0.8250    0.0000 C   0  0  0  0  0  0  0  0  0  0  0  0
    2.5006    0.4125    0.0000 O   0  0  0  0  0  0  0  0  0  0  0  0
   -1.0717    1.6500    0.0000 C   0  0  0  0  0  0  0  0  0  0  0  0
   -0.3572    2.0625    0.0000 C   0  0  0  0  0  0  0  0  0  0  0  0
   -0.8582    0.8531    0.0000 C   0  0  0  0  0  0  0  0  0  0  0  0
    0.3572   -3.3000    0.0000 C   0  0  0  0  0  0  0  0  0  0  0  0
    1.7862    1.6500    0.0000 N   0  0  0  0  0  0  0  0  0  0  0  0
    2.5006    2.0625    0.0000 C   0  0  0  0  0  0  0  0  0  0  0  0
    2.5006    2.8875    0.0000 C   0  0  0  0  0  0  0  0  0  0  0  0
    3.2151    1.6500    0.0000 C   0  0  0  0  0  0  0  0  0  0  0  0
    3.9296    2.0625    0.0000 C   0  0  0  0  0  0  0  0  0  0  0  0
    3.9296    2.8875    0.0000 N   0  0  0  0  0  0  0  0  0  0  0  0
    3.2151    3.3000    0.0000 C   0  0  0  0  0  0  0  0  0  0  0  0
  1  2  4  0  0  0  0
  2  3  4  0  0  0  0
  3  4  4  0  0  0  0
  4  5  4  0  0  0  0
  5  6  4  0  0  0  0
  6  1  4  0  0  0  0
  1  7  1  0  0  0  0
  7  8  2  0  0  0  0
  7  9  2  0  0  0  0
  2 10  1  0  0  0  0
 10 11  1  0  0  0  0
 11 12  4  0  0  0  0
 12 13  4  0  0  0  0
 13 14  4  0  0  0  0
 14 15  4  0  0  0  0
 15 16  4  0  0  0  0
 16 11  4  0  0  0  0
 12 17  1  0  0  0  0
 15 18  1  0  0  0  0
 18 19  1  0  0  0  0
 19 20  4  0  0  0  0
 19 21  4  0  0  0  0
 21 22  4  0  0  0  0
 22 23  4  0  0  0  0
 23 24  4  0  0  0  0
 24 20  4  0  0  0  0
 21 25  1  0  0  0  0
 24 26  1  0  0  0  0
 26 27  1  0  0  0  0
 27 28  2  0  0  0  0
  7 29  1  0  0  0  0
 29 30  1  0  0  0  0
 29 31  1  0  0  0  0
 25 32  1  0  0  0  0
 27 33  1  0  0  0  0
 33 34  1  0  0  0  0
 34 35  4  0  0  0  0
 34 36  4  0  0  0  0
 36 37  4  0  0  0  0
 37 38  4  0  0  0  0
 38 39  4  0  0  0  0
 39 35  4  0  0  0  0
M  END
> <From>
www.bindingDB.org

> <BindingDB Reactant_set_id>
556957

> <Ligand InChI>
InChI=1S/C27H27ClN6O4S/c1-17(2)39(36,37)24-7-5-4-6-21(24)32-26-20(28)16-30-27(34-26)33-22-14-18(8-9-23(22)38-3)15-25(35)31-19-10-12-29-13-11-19/h4-14,16-17H,15H2,1-3H3,(H,29,31,35)(H2,30,32,33,34)

> <Ligand InChI Key>
UZPORYZKEVEUQE-UHFFFAOYSA-N

> <BindingDB MonomerID>
291979

> <BindingDB Ligand Name>
US10100019, Example 49

> <Target Name Assigned by Curator or DataSource>
ALK tyrosine kinase receptor

> <Target Source Organism According to Curator or DataSource>
Homo sapiens

> <Ki (nM)>


> <IC50 (nM)>
 34.0

> <Kd (nM)>


> <EC50 (nM)>


> <kon (M-1-s-1)>


> <koff (s-1)>


> <pH>


> <Temp C>
25.00

> <Curation/DataSource>
US Patent

> <Article DOI>
10.1016/j.bmcl.2006.04.076

> <PMID>


> <PubChem AID>


> <Patent Number>
US10100019

> <Authors>
Kim, P; Kim, HR; Cho, SY; Ha, JD; Jung, HJ; Yun, CS; Hwang, JY; Park, CH; Lee, CO; Ahn, S; Chae, CH

> <Institution>
Korea Research Institute of Chemical Technology

> <Link to Ligand in BindingDB>
http://www.bindingdb.org/bind/chemsearch/marvin/MolStructure.jsp?monomerid=291979

> <Link to Ligand-Target Pair in BindingDB>
http://www.bindingdb.org/jsp/dbsearch/PrimarySearch_ki.jsp?energyterm=kJ/mole&tag=pol&polymerid=5809&target=ALK+tyrosine+kinase+receptor&column=ki&startPg=0&Increment=50&submit=Search

> <Link to Ligand-Target Pair in BindingDB>
http://www.bindingdb.org/jsp/dbsearch/PrimarySearch_ki.jsp?energyterm=kJ/mole&tag=r21&monomerid=291979&enzyme=ALK+tyrosine+kinase+receptor&column=ki&startPg=0&Increment=50&submit=Search

> <Ligand HET ID in PDB>


> <PDB ID(s) for Ligand-Target Complex>


> <PubChem CID>
134449956

> <PubChem SID>
381612278

> <ChEBI ID of Ligand>


> <ChEMBL ID of Ligand>


> <DrugBank ID of Ligand>


> <IUPHAR_GRAC ID of Ligand>


> <KEGG ID of Ligand>


> <ZINC ID of Ligand>


> <Number of Protein Chains in Target (>1 implies a multichain complex)>
1

> <BindingDB Target Chain Sequence>
MGAIGLLWLLPLLLSTAAVGSGMGTGQRAGSPAAGPPLQPREPLSYSRLQRKSLAVDFVVPSLFRVYARDLLLPPSSSELKAGRPEARGSLALDCAPLLRLLGPAPGVSWTAGSPAPAEARTLSRVLKGGSVRKLRRAKQLVLELGEEAILEGCVGPPGEAAVGLLQFNLSELFSWWIRQGEGRLRIRLMPEKKASEVGREGRLSAAIRASQPRLLFQIFGTGHSSLESPTNMPSPSPDYFTWNLTWIMKDSFPFLSHRSRYGLECSFDFPCELEYSPPLHDLRNQSWSWRRIPSEEASQMDLLDGPGAERSKEMPRGSFLLLNTSADSKHTILSPWMRSSSEHCTLAVSVHRHLQPSGRYIAQLLPHNEAAREILLMPTPGKHGWTVLQGRIGRPDNPFRVALEYISSGNRSLSAVDFFALKNCSEGTSPGSKMALQSSFTCWNGTVLQLGQACDFHQDCAQGEDESQMCRKLPVGFYCNFEDGFCGWTQGTLSPHTPQWQVRTLKDARFQDHQDHALLLSTTDVPASESATVTSATFPAPIKSSPCELRMSWLIRGVLRGNVSLVLVENKTGKEQGRMVWHVAAYEGLSLWQWMVLPLLDVSDRFWLQMVAWWGQGSRAIVAFDNISISLDCYLTISGEDKILQNTAPKSRNLFERNPNKELKPGENSPRQTPIFDPTVHWLFTTCGASGPHGPTQAQCNNAYQNSNLSVEVGSEGPLKGIQIWKVPATDTYSISGYGAAGGKGGKNTMMRSHGVSVLGIFNLEKDDMLYILVGQQGEDACPSTNQLIQKVCIGENNVIEEEIRVNRSVHEWAGGGGGGGGATYVFKMKDGVPVPLIIAAGGGGRAYGAKTDTFHPERLENNSSVLGLNGNSGAAGGGGGWNDNTSLLWAGKSLQEGATGGHSCPQAMKKWGWETRGGFGGGGGGCSSGGGGGGYIGGNAASNNDPEMDGEDGVSFISPLGILYTPALKVMEGHGEVNIKHYLNCSHCEVDECHMDPESHKVICFCDHGTVLAEDGVSCIVSPTPEPHLPLSLILSVVTSALVAALVLAFSGIMIVYRRKHQELQAMQMELQSPEYKLSKLRTSTIMTDYNPNYCFAGKTSSISDLKEVPRKNITLIRGLGHGAFGEVYEGQVSGMPNDPSPLQVAVKTLPEVCSEQDELDFLMEALIISKFNHQNIVRCIGVSLQSLPRFILLELMAGGDLKSFLRETRPRPSQPSSLAMLDLLHVARDIACGCQYLEENHFIHRDIAARNCLLTCPGPGRVAKIGDFGMARDIYRASYYRKGGCAMLPVKWMPPEAFMEGIFTSKTDTWSFGVLLWEIFSLGYMPYPSKSNQEVLEFVTSGGRMDPPKNCPGPVYRIMTQCWQHQPEDRPNFAIILERIEYCTQDPDVINTALPIEYGPLVEEEEKVPVRPKDPEGVPPLLVSQQAKREEERSPAAPPPLPTTSSGKAAKKPTAAEISVRVPRGPAVEGGHVNMAFSQSNPPSELHKVHGSRNKPTSLWNPTYGSWFTEKPTKKNNPIAKKEPHDRGNLGLEGSCTVPPNVATGRLPGASLLLEPSSLTANMKEVPLFRLRHFPCGNVNYGYQQQGLPLEAATAPGAGHYEDTILKSKNSMNQPGP

> <PDB ID(s) of Target Chain>
2XB7,2XBA,3AOX,5FTO,5FTQ,6E0R,6EBW,6EDL,6MX8

> <UniProt (SwissProt) Recommended Name of Target Chain>
ALK tyrosine kinase receptor

> <UniProt (SwissProt) Entry Name of Target Chain>
ALK_HUMAN

> <UniProt (SwissProt) Primary ID of Target Chain>
Q9UM73

> <UniProt (SwissProt) Secondary ID(s) of Target Chain>
Q4ZFX9,Q53QQ6,Q53RZ4,Q59FI3,Q9Y4K6

> <UniProt (SwissProt) Alternative ID(s) of Target Chain>


> <UniProt (TrEMBL) Submitted Name of Target Chain>


> <UniProt (TrEMBL) Entry Name of Target Chain>


> <UniProt (TrEMBL) Primary ID of Target Chain>


> <UniProt (TrEMBL) Secondary ID(s) of Target Chain>


> <UniProt (TrEMBL) Alternative ID(s) of Target Chain>


$$$$
00184001.cdx
  Mrv0541 02211919242D          

 39 42  0  0  0  0            999 V2000
   -2.5006    1.6500    0.0000 C   0  0  0  0  0  0  0  0  0  0  0  0
   -2.5006    0.8250    0.0000 C   0  0  0  0  0  0  0  0  0  0  0  0
   -3.2151    0.4125    0.0000 C   0  0  0  0  0  0  0  0  0  0  0  0
   -3.9296    0.8250    0.0000 C   0  0  0  0  0  0  0  0  0  0  0  0
   -3.9296    1.6500    0.0000 C   0  0  0  0  0  0  0  0  0  0  0  0
   -3.2151    2.0625    0.0000 C   0  0  0  0  0  0  0  0  0  0  0  0
   -1.7862    2.0625    0.0000 S   0  0  0  0  0  0  0  0  0  0  0  0
   -1.7862    2.8875    0.0000 O   0  0  0  0  0  0  0  0  0  0  0  0
   -1.0717    2.4750    0.0000 O   0  0  0  0  0  0  0  0  0  0  0  0
   -1.7862    0.4125    0.0000 N   0  0  0  0  0  0  0  0  0  0  0  0
   -1.7862   -0.4125    0.0000 C   0  0  0  0  0  0  0  0  0  0  0  0
   -2.5006   -0.8250    0.0000 C   0  0  0  0  0  0  0  0  0  0  0  0
   -2.5006   -1.6500    0.0000 C   0  0  0  0  0  0  0  0  0  0  0  0
   -1.7862   -2.0625    0.0000 N   0  0  0  0  0  0  0  0  0  0  0  0
   -1.0717   -1.6500    0.0000 C   0  0  0  0  0  0  0  0  0  0  0  0
   -1.0717   -0.8250    0.0000 N   0  0  0  0  0  0  0  0  0  0  0  0
   -3.2151   -0.4125    0.0000 Cl  0  0  0  0  0  0  0  0  0  0  0  0
   -0.3572   -2.0625    0.0000 N   0  0  0  0  0  0  0  0  0  0  0  0
    0.3572   -1.6500    0.0000 C   0  0  0  0  0  0  0  0  0  0  0  0
    0.3572   -0.8250    0.0000 C   0  0  0  0  0  0  0  0  0  0  0  0
    1.0717   -2.0625    0.0000 C   0  0  0  0  0  0  0  0  0  0  0  0
    1.7862   -1.6500    0.0000 C   0  0  0  0  0  0  0  0  0  0  0  0
    1.7862   -0.8250    0.0000 C   0  0  0  0  0  0  0  0  0  0  0  0
    1.0717   -0.4125    0.0000 C   0  0  0  0  0  0  0  0  0  0  0  0
    1.0717   -2.8875    0.0000 O   0  0  0  0  0  0  0  0  0  0  0  0
    1.0717    0.4125    0.0000 C   0  0  0  0  0  0  0  0  0  0  0  0
    1.7862    0.8250    0.0000 C   0  0  0  0  0  0  0  0  0  0  0  0
    2.5006    0.4125    0.0000 O   0  0  0  0  0  0  0  0  0  0  0  0
   -1.0717    1.6500    0.0000 C   0  0  0  0  0  0  0  0  0  0  0  0
   -0.3572    2.0625    0.0000 C   0  0  0  0  0  0  0  0  0  0  0  0
   -0.8582    0.8531    0.0000 C   0  0  0  0  0  0  0  0  0  0  0  0
    0.3572   -3.3000    0.0000 C   0  0  0  0  0  0  0  0  0  0  0  0
    1.7862    1.6500    0.0000 N   0  0  0  0  0  0  0  0  0  0  0  0
    2.5006    2.0625    0.0000 C   0  0  0  0  0  0  0  0  0  0  0  0
    2.5006    2.8875    0.0000 C   0  0  0  0  0  0  0  0  0  0  0  0
    3.2151    1.6500    0.0000 C   0  0  0  0  0  0  0  0  0  0  0  0
    3.9296    2.0625    0.0000 C   0  0  0  0  0  0  0  0  0  0  0  0
    3.9296    2.8875    0.0000 C   0  0  0  0  0  0  0  0  0  0  0  0
    3.2151    3.3000    0.0000 C   0  0  0  0  0  0  0  0  0  0  0  0
  1  2  4  0  0  0  0
  2  3  4  0  0  0  0
  3  4  4  0  0  0  0
  4  5  4  0  0  0  0
  5  6  4  0  0  0  0
  6  1  4  0  0  0  0
  1  7  1  0  0  0  0
  7  8  2  0  0  0  0
  7  9  2  0  0  0  0
  2 10  1  0  0  0  0
 10 11  1  0  0  0  0
 11 12  4  0  0  0  0
 12 13  4  0  0  0  0
 13 14  4  0  0  0  0
 14 15  4  0  0  0  0
 15 16  4  0  0  0  0
 16 11  4  0  0  0  0
 12 17  1  0  0  0  0
 15 18  1  0  0  0  0
 18 19  1  0  0  0  0
 19 20  4  0  0  0  0
 19 21  4  0  0  0  0
 21 22  4  0  0  0  0
 22 23  4  0  0  0  0
 23 24  4  0  0  0  0
 24 20  4  0  0  0  0
 21 25  1  0  0  0  0
 24 26  1  0  0  0  0
 26 27  1  0  0  0  0
 27 28  2  0  0  0  0
  7 29  1  0  0  0  0
 29 30  1  0  0  0  0
 29 31  1  0  0  0  0
 25 32  1  0  0  0  0
 27 33  1  0  0  0  0
 33 34  1  0  0  0  0
 34 35  4  0  0  0  0
 34 36  4  0  0  0  0
 36 37  4  0  0  0  0
 37 38  4  0  0  0  0
 38 39  4  0  0  0  0
 39 35  4  0  0  0  0
M  END
> <From>
www.bindingDB.org

> <BindingDB Reactant_set_id>
556958

> <Ligand InChI>
InChI=1S/C28H28ClN5O4S/c1-18(2)39(36,37)25-12-8-7-11-22(25)32-27-21(29)17-30-28(34-27)33-23-15-19(13-14-24(23)38-3)16-26(35)31-20-9-5-4-6-10-20/h4-15,17-18H,16H2,1-3H3,(H,31,35)(H2,30,32,33,34)

> <Ligand InChI Key>
AVEONGWSGRNHSQ-UHFFFAOYSA-N

> <BindingDB MonomerID>
291980

> <BindingDB Ligand Name>
US10100019, Example 50

> <Target Name Assigned by Curator or DataSource>
ALK tyrosine kinase receptor

> <Target Source Organism According to Curator or DataSource>
Homo sapiens

> <Ki (nM)>


> <IC50 (nM)>
 270

> <Kd (nM)>


> <EC50 (nM)>


> <kon (M-1-s-1)>


> <koff (s-1)>


> <pH>


> <Temp C>
25.00

> <Curation/DataSource>
US Patent

> <Article DOI>
10.1016/j.bmcl.2006.04.076

> <PMID>


> <PubChem AID>


> <Patent Number>
US10100019

> <Authors>
Kim, P; Kim, HR; Cho, SY; Ha, JD; Jung, HJ; Yun, CS; Hwang, JY; Park, CH; Lee, CO; Ahn, S; Chae, CH

> <Institution>
Korea Research Institute of Chemical Technology

> <Link to Ligand in BindingDB>
http://www.bindingdb.org/bind/chemsearch/marvin/MolStructure.jsp?monomerid=291980

> <Link to Ligand-Target Pair in BindingDB>
http://www.bindingdb.org/jsp/dbsearch/PrimarySearch_ki.jsp?energyterm=kJ/mole&tag=pol&polymerid=5809&target=ALK+tyrosine+kinase+receptor&column=ki&startPg=0&Increment=50&submit=Search

> <Link to Ligand-Target Pair in BindingDB>
http://www.bindingdb.org/jsp/dbsearch/PrimarySearch_ki.jsp?energyterm=kJ/mole&tag=r21&monomerid=291980&enzyme=ALK+tyrosine+kinase+receptor&column=ki&startPg=0&Increment=50&submit=Search

> <Ligand HET ID in PDB>


> <PDB ID(s) for Ligand-Target Complex>


> <PubChem CID>
134449957

> <PubChem SID>
381612279

> <ChEBI ID of Ligand>


> <ChEMBL ID of Ligand>


> <DrugBank ID of Ligand>


> <IUPHAR_GRAC ID of Ligand>


> <KEGG ID of Ligand>


> <ZINC ID of Ligand>


> <Number of Protein Chains in Target (>1 implies a multichain complex)>
1

> <BindingDB Target Chain Sequence>
MGAIGLLWLLPLLLSTAAVGSGMGTGQRAGSPAAGPPLQPREPLSYSRLQRKSLAVDFVVPSLFRVYARDLLLPPSSSELKAGRPEARGSLALDCAPLLRLLGPAPGVSWTAGSPAPAEARTLSRVLKGGSVRKLRRAKQLVLELGEEAILEGCVGPPGEAAVGLLQFNLSELFSWWIRQGEGRLRIRLMPEKKASEVGREGRLSAAIRASQPRLLFQIFGTGHSSLESPTNMPSPSPDYFTWNLTWIMKDSFPFLSHRSRYGLECSFDFPCELEYSPPLHDLRNQSWSWRRIPSEEASQMDLLDGPGAERSKEMPRGSFLLLNTSADSKHTILSPWMRSSSEHCTLAVSVHRHLQPSGRYIAQLLPHNEAAREILLMPTPGKHGWTVLQGRIGRPDNPFRVALEYISSGNRSLSAVDFFALKNCSEGTSPGSKMALQSSFTCWNGTVLQLGQACDFHQDCAQGEDESQMCRKLPVGFYCNFEDGFCGWTQGTLSPHTPQWQVRTLKDARFQDHQDHALLLSTTDVPASESATVTSATFPAPIKSSPCELRMSWLIRGVLRGNVSLVLVENKTGKEQGRMVWHVAAYEGLSLWQWMVLPLLDVSDRFWLQMVAWWGQGSRAIVAFDNISISLDCYLTISGEDKILQNTAPKSRNLFERNPNKELKPGENSPRQTPIFDPTVHWLFTTCGASGPHGPTQAQCNNAYQNSNLSVEVGSEGPLKGIQIWKVPATDTYSISGYGAAGGKGGKNTMMRSHGVSVLGIFNLEKDDMLYILVGQQGEDACPSTNQLIQKVCIGENNVIEEEIRVNRSVHEWAGGGGGGGGATYVFKMKDGVPVPLIIAAGGGGRAYGAKTDTFHPERLENNSSVLGLNGNSGAAGGGGGWNDNTSLLWAGKSLQEGATGGHSCPQAMKKWGWETRGGFGGGGGGCSSGGGGGGYIGGNAASNNDPEMDGEDGVSFISPLGILYTPALKVMEGHGEVNIKHYLNCSHCEVDECHMDPESHKVICFCDHGTVLAEDGVSCIVSPTPEPHLPLSLILSVVTSALVAALVLAFSGIMIVYRRKHQELQAMQMELQSPEYKLSKLRTSTIMTDYNPNYCFAGKTSSISDLKEVPRKNITLIRGLGHGAFGEVYEGQVSGMPNDPSPLQVAVKTLPEVCSEQDELDFLMEALIISKFNHQNIVRCIGVSLQSLPRFILLELMAGGDLKSFLRETRPRPSQPSSLAMLDLLHVARDIACGCQYLEENHFIHRDIAARNCLLTCPGPGRVAKIGDFGMARDIYRASYYRKGGCAMLPVKWMPPEAFMEGIFTSKTDTWSFGVLLWEIFSLGYMPYPSKSNQEVLEFVTSGGRMDPPKNCPGPVYRIMTQCWQHQPEDRPNFAIILERIEYCTQDPDVINTALPIEYGPLVEEEEKVPVRPKDPEGVPPLLVSQQAKREEERSPAAPPPLPTTSSGKAAKKPTAAEISVRVPRGPAVEGGHVNMAFSQSNPPSELHKVHGSRNKPTSLWNPTYGSWFTEKPTKKNNPIAKKEPHDRGNLGLEGSCTVPPNVATGRLPGASLLLEPSSLTANMKEVPLFRLRHFPCGNVNYGYQQQGLPLEAATAPGAGHYEDTILKSKNSMNQPGP

> <PDB ID(s) of Target Chain>
2XB7,2XBA,3AOX,5FTO,5FTQ,6E0R,6EBW,6EDL,6MX8

> <UniProt (SwissProt) Recommended Name of Target Chain>
ALK tyrosine kinase receptor

> <UniProt (SwissProt) Entry Name of Target Chain>
ALK_HUMAN

> <UniProt (SwissProt) Primary ID of Target Chain>
Q9UM73

> <UniProt (SwissProt) Secondary ID(s) of Target Chain>
Q4ZFX9,Q53QQ6,Q53RZ4,Q59FI3,Q9Y4K6

> <UniProt (SwissProt) Alternative ID(s) of Target Chain>


> <UniProt (TrEMBL) Submitted Name of Target Chain>


> <UniProt (TrEMBL) Entry Name of Target Chain>


> <UniProt (TrEMBL) Primary ID of Target Chain>


> <UniProt (TrEMBL) Secondary ID(s) of Target Chain>


> <UniProt (TrEMBL) Alternative ID(s) of Target Chain>


$$$$
00185001.cdx
  Mrv0541 02211919242D          

 33 35  0  0  0  0            999 V2000
   -1.4289    0.0854    0.0000 C   0  0  0  0  0  0  0  0  0  0  0  0
   -2.1434   -0.3271    0.0000 C   0  0  0  0  0  0  0  0  0  0  0  0
   -2.1434   -1.1521    0.0000 C   0  0  0  0  0  0  0  0  0  0  0  0
   -1.4289   -1.5646    0.0000 N   0  0  0  0  0  0  0  0  0  0  0  0
   -0.7145   -1.1521    0.0000 C   0  0  0  0  0  0  0  0  0  0  0  0
   -0.7145   -0.3271    0.0000 N   0  0  0  0  0  0  0  0  0  0  0  0
   -2.8579    0.0854    0.0000 Cl  0  0  0  0  0  0  0  0  0  0  0  0
    0.0000   -1.5646    0.0000 N   0  0  0  0  0  0  0  0  0  0  0  0
   -0.7145    2.1479    0.0000 C   0  0  0  0  0  0  0  0  0  0  0  0
   -0.7145    1.3229    0.0000 C   0  0  0  0  0  0  0  0  0  0  0  0
    0.0000    0.9104    0.0000 C   0  0  0  0  0  0  0  0  0  0  0  0
    0.7145    1.3229    0.0000 C   0  0  0  0  0  0  0  0  0  0  0  0
    0.7145    2.1479    0.0000 C   0  0  0  0  0  0  0  0  0  0  0  0
    0.0000    2.5604    0.0000 C   0  0  0  0  0  0  0  0  0  0  0  0
   -1.4289    2.5604    0.0000 S   0  0  0  0  0  0  0  0  0  0  0  0
   -2.1434    2.1479    0.0000 C   0  0  0  0  0  0  0  0  0  0  0  0
   -1.4289    0.9104    0.0000 N   0  0  0  0  0  0  0  0  0  0  0  0
    0.7145   -1.1521    0.0000 C   0  0  0  0  0  0  0  0  0  0  0  0
    0.7145   -0.3271    0.0000 C   0  0  0  0  0  0  0  0  0  0  0  0
    1.4289   -1.5646    0.0000 C   0  0  0  0  0  0  0  0  0  0  0  0
    2.1434   -1.1521    0.0000 C   0  0  0  0  0  0  0  0  0  0  0  0
    2.1434   -0.3271    0.0000 C   0  0  0  0  0  0  0  0  0  0  0  0
    1.4289    0.0854    0.0000 C   0  0  0  0  0  0  0  0  0  0  0  0
    1.4289    0.9104    0.0000 C   0  0  0  0  0  0  0  0  0  0  0  0
    2.1434    1.3229    0.0000 C   0  0  0  0  0  0  0  0  0  0  0  0
    2.1434    2.1479    0.0000 N   0  0  0  0  0  0  0  0  0  0  0  0
    1.4289   -2.3896    0.0000 O   0  0  0  0  0  0  0  0  0  0  0  0
    2.0123   -2.9729    0.0000 C   0  0  0  0  0  0  0  0  0  0  0  0
    2.8579    0.0854    0.0000 Br  0  0  0  0  0  0  0  0  0  0  0  0
   -2.8579    2.5604    0.0000 C   0  0  0  0  0  0  0  0  0  0  0  0
   -2.1434    1.3229    0.0000 C   0  0  0  0  0  0  0  0  0  0  0  0
   -2.1434    2.9729    0.0000 O   0  0  0  0  0  0  0  0  0  0  0  0
   -0.7145    2.9729    0.0000 O   0  0  0  0  0  0  0  0  0  0  0  0
 17  1  1  0  0  0  0
  1  2  4  0  0  0  0
  2  3  4  0  0  0  0
  3  4  4  0  0  0  0
  4  5  4  0  0  0  0
  5  6  4  0  0  0  0
  6  1  4  0  0  0  0
  2  7  1  0  0  0  0
  5  8  1  0  0  0  0
  9 10  4  0  0  0  0
 10 11  4  0  0  0  0
 11 12  4  0  0  0  0
 12 13  4  0  0  0  0
 13 14  4  0  0  0  0
 14  9  4  0  0  0  0
  9 15  1  0  0  0  0
 15 16  1  0  0  0  0
 10 17  1  0  0  0  0
  8 18  1  0  0  0  0
 18 19  4  0  0  0  0
 18 20  4  0  0  0  0
 20 21  4  0  0  0  0
 21 22  4  0  0  0  0
 22 23  4  0  0  0  0
 23 19  4  0  0  0  0
 23 24  1  0  0  0  0
 24 25  1  0  0  0  0
 25 26  1  0  0  0  0
 20 27  1  0  0  0  0
 27 28  1  0  0  0  0
 22 29  1  0  0  0  0
 16 30  1  0  0  0  0
 16 31  1  0  0  0  0
 15 32  2  0  0  0  0
 15 33  2  0  0  0  0
M  END
> <From>
www.bindingDB.org

> <BindingDB Reactant_set_id>
556959

> <Ligand InChI>
InChI=1S/C22H25BrClN5O3S/c1-13(2)33(30,31)20-7-5-4-6-17(20)27-21-16(24)12-26-22(29-21)28-18-10-14(8-9-25)15(23)11-19(18)32-3/h4-7,10-13H,8-9,25H2,1-3H3,(H2,26,27,28,29)

> <Ligand InChI Key>
BPMCPKIAIPVHBH-UHFFFAOYSA-N

> <BindingDB MonomerID>
291981

> <BindingDB Ligand Name>
US10100019, Example 51

> <Target Name Assigned by Curator or DataSource>
ALK tyrosine kinase receptor

> <Target Source Organism According to Curator or DataSource>
Homo sapiens

> <Ki (nM)>


> <IC50 (nM)>
 3.40

> <Kd (nM)>


> <EC50 (nM)>


> <kon (M-1-s-1)>


> <koff (s-1)>


> <pH>


> <Temp C>
25.00

> <Curation/DataSource>
US Patent

> <Article DOI>
10.1016/j.bmcl.2006.04.076

> <PMID>


> <PubChem AID>


> <Patent Number>
US10100019

> <Authors>
Kim, P; Kim, HR; Cho, SY; Ha, JD; Jung, HJ; Yun, CS; Hwang, JY; Park, CH; Lee, CO; Ahn, S; Chae, CH

> <Institution>
Korea Research Institute of Chemical Technology

> <Link to Ligand in BindingDB>
http://www.bindingdb.org/bind/chemsearch/marvin/MolStructure.jsp?monomerid=291981

> <Link to Ligand-Target Pair in BindingDB>
http://www.bindingdb.org/jsp/dbsearch/PrimarySearch_ki.jsp?energyterm=kJ/mole&tag=pol&polymerid=5809&target=ALK+tyrosine+kinase+receptor&column=ki&startPg=0&Increment=50&submit=Search

> <Link to Ligand-Target Pair in BindingDB>
http://www.bindingdb.org/jsp/dbsearch/PrimarySearch_ki.jsp?energyterm=kJ/mole&tag=r21&monomerid=291981&enzyme=ALK+tyrosine+kinase+receptor&column=ki&startPg=0&Increment=50&submit=Search

> <Ligand HET ID in PDB>


> <PDB ID(s) for Ligand-Target Complex>


> <PubChem CID>
134449959

> <PubChem SID>
381612280

> <ChEBI ID of Ligand>


> <ChEMBL ID of Ligand>


> <DrugBank ID of Ligand>


> <IUPHAR_GRAC ID of Ligand>


> <KEGG ID of Ligand>


> <ZINC ID of Ligand>


> <Number of Protein Chains in Target (>1 implies a multichain complex)>
1

> <BindingDB Target Chain Sequence>
MGAIGLLWLLPLLLSTAAVGSGMGTGQRAGSPAAGPPLQPREPLSYSRLQRKSLAVDFVVPSLFRVYARDLLLPPSSSELKAGRPEARGSLALDCAPLLRLLGPAPGVSWTAGSPAPAEARTLSRVLKGGSVRKLRRAKQLVLELGEEAILEGCVGPPGEAAVGLLQFNLSELFSWWIRQGEGRLRIRLMPEKKASEVGREGRLSAAIRASQPRLLFQIFGTGHSSLESPTNMPSPSPDYFTWNLTWIMKDSFPFLSHRSRYGLECSFDFPCELEYSPPLHDLRNQSWSWRRIPSEEASQMDLLDGPGAERSKEMPRGSFLLLNTSADSKHTILSPWMRSSSEHCTLAVSVHRHLQPSGRYIAQLLPHNEAAREILLMPTPGKHGWTVLQGRIGRPDNPFRVALEYISSGNRSLSAVDFFALKNCSEGTSPGSKMALQSSFTCWNGTVLQLGQACDFHQDCAQGEDESQMCRKLPVGFYCNFEDGFCGWTQGTLSPHTPQWQVRTLKDARFQDHQDHALLLSTTDVPASESATVTSATFPAPIKSSPCELRMSWLIRGVLRGNVSLVLVENKTGKEQGRMVWHVAAYEGLSLWQWMVLPLLDVSDRFWLQMVAWWGQGSRAIVAFDNISISLDCYLTISGEDKILQNTAPKSRNLFERNPNKELKPGENSPRQTPIFDPTVHWLFTTCGASGPHGPTQAQCNNAYQNSNLSVEVGSEGPLKGIQIWKVPATDTYSISGYGAAGGKGGKNTMMRSHGVSVLGIFNLEKDDMLYILVGQQGEDACPSTNQLIQKVCIGENNVIEEEIRVNRSVHEWAGGGGGGGGATYVFKMKDGVPVPLIIAAGGGGRAYGAKTDTFHPERLENNSSVLGLNGNSGAAGGGGGWNDNTSLLWAGKSLQEGATGGHSCPQAMKKWGWETRGGFGGGGGGCSSGGGGGGYIGGNAASNNDPEMDGEDGVSFISPLGILYTPALKVMEGHGEVNIKHYLNCSHCEVDECHMDPESHKVICFCDHGTVLAEDGVSCIVSPTPEPHLPLSLILSVVTSALVAALVLAFSGIMIVYRRKHQELQAMQMELQSPEYKLSKLRTSTIMTDYNPNYCFAGKTSSISDLKEVPRKNITLIRGLGHGAFGEVYEGQVSGMPNDPSPLQVAVKTLPEVCSEQDELDFLMEALIISKFNHQNIVRCIGVSLQSLPRFILLELMAGGDLKSFLRETRPRPSQPSSLAMLDLLHVARDIACGCQYLEENHFIHRDIAARNCLLTCPGPGRVAKIGDFGMARDIYRASYYRKGGCAMLPVKWMPPEAFMEGIFTSKTDTWSFGVLLWEIFSLGYMPYPSKSNQEVLEFVTSGGRMDPPKNCPGPVYRIMTQCWQHQPEDRPNFAIILERIEYCTQDPDVINTALPIEYGPLVEEEEKVPVRPKDPEGVPPLLVSQQAKREEERSPAAPPPLPTTSSGKAAKKPTAAEISVRVPRGPAVEGGHVNMAFSQSNPPSELHKVHGSRNKPTSLWNPTYGSWFTEKPTKKNNPIAKKEPHDRGNLGLEGSCTVPPNVATGRLPGASLLLEPSSLTANMKEVPLFRLRHFPCGNVNYGYQQQGLPLEAATAPGAGHYEDTILKSKNSMNQPGP

> <PDB ID(s) of Target Chain>
2XB7,2XBA,3AOX,5FTO,5FTQ,6E0R,6EBW,6EDL,6MX8

> <UniProt (SwissProt) Recommended Name of Target Chain>
ALK tyrosine kinase receptor

> <UniProt (SwissProt) Entry Name of Target Chain>
ALK_HUMAN

> <UniProt (SwissProt) Primary ID of Target Chain>
Q9UM73

> <UniProt (SwissProt) Secondary ID(s) of Target Chain>
Q4ZFX9,Q53QQ6,Q53RZ4,Q59FI3,Q9Y4K6

> <UniProt (SwissProt) Alternative ID(s) of Target Chain>


> <UniProt (TrEMBL) Submitted Name of Target Chain>


> <UniProt (TrEMBL) Entry Name of Target Chain>


> <UniProt (TrEMBL) Primary ID of Target Chain>


> <UniProt (TrEMBL) Secondary ID(s) of Target Chain>


> <UniProt (TrEMBL) Alternative ID(s) of Target Chain>


$$$$
00186001.cdx
  Mrv0541 02211919242D          

 33 35  0  0  0  0            999 V2000
   -1.6425    0.0854    0.0000 C   0  0  0  0  0  0  0  0  0  0  0  0
   -2.3569   -0.3271    0.0000 C   0  0  0  0  0  0  0  0  0  0  0  0
   -2.3569   -1.1521    0.0000 C   0  0  0  0  0  0  0  0  0  0  0  0
   -1.6425   -1.5646    0.0000 N   0  0  0  0  0  0  0  0  0  0  0  0
   -0.9280   -1.1521    0.0000 C   0  0  0  0  0  0  0  0  0  0  0  0
   -0.9280   -0.3271    0.0000 N   0  0  0  0  0  0  0  0  0  0  0  0
   -3.0714    0.0854    0.0000 Cl  0  0  0  0  0  0  0  0  0  0  0  0
   -0.2135   -1.5646    0.0000 N   0  0  0  0  0  0  0  0  0  0  0  0
   -0.9280    2.1479    0.0000 C   0  0  0  0  0  0  0  0  0  0  0  0
   -0.9280    1.3229    0.0000 C   0  0  0  0  0  0  0  0  0  0  0  0
   -0.2135    0.9104    0.0000 C   0  0  0  0  0  0  0  0  0  0  0  0
    0.5009    1.3229    0.0000 C   0  0  0  0  0  0  0  0  0  0  0  0
    0.5009    2.1479    0.0000 C   0  0  0  0  0  0  0  0  0  0  0  0
   -0.2135    2.5604    0.0000 C   0  0  0  0  0  0  0  0  0  0  0  0
   -1.6425    2.5604    0.0000 S   0  0  0  0  0  0  0  0  0  0  0  0
   -2.3569    2.1479    0.0000 C   0  0  0  0  0  0  0  0  0  0  0  0
   -1.6425    0.9104    0.0000 N   0  0  0  0  0  0  0  0  0  0  0  0
    0.5009   -1.1521    0.0000 C   0  0  0  0  0  0  0  0  0  0  0  0
    0.5009   -0.3271    0.0000 C   0  0  0  0  0  0  0  0  0  0  0  0
    1.2154   -1.5646    0.0000 C   0  0  0  0  0  0  0  0  0  0  0  0
    1.9299   -1.1521    0.0000 C   0  0  0  0  0  0  0  0  0  0  0  0
    1.9299   -0.3271    0.0000 C   0  0  0  0  0  0  0  0  0  0  0  0
    1.2154    0.0854    0.0000 C   0  0  0  0  0  0  0  0  0  0  0  0
    1.2154    0.9104    0.0000 C   0  0  0  0  0  0  0  0  0  0  0  0
    1.2154   -2.3896    0.0000 O   0  0  0  0  0  0  0  0  0  0  0  0
    1.7988   -2.9729    0.0000 C   0  0  0  0  0  0  0  0  0  0  0  0
    2.6444    0.0854    0.0000 C   0  0  0  0  0  0  0  0  0  0  0  0
   -3.0714    2.5604    0.0000 C   0  0  0  0  0  0  0  0  0  0  0  0
   -2.3569    1.3229    0.0000 C   0  0  0  0  0  0  0  0  0  0  0  0
   -2.3569    2.9729    0.0000 O   0  0  0  0  0  0  0  0  0  0  0  0
   -0.9280    2.9729    0.0000 O   0  0  0  0  0  0  0  0  0  0  0  0
    2.6444    0.9104    0.0000 C   0  0  0  0  0  0  0  0  0  0  0  0
    2.6444    1.7354    0.0000 N   0  0  0  0  0  0  0  0  0  0  0  0
 17  1  1  0  0  0  0
  1  2  4  0  0  0  0
  2  3  4  0  0  0  0
  3  4  4  0  0  0  0
  4  5  4  0  0  0  0
  5  6  4  0  0  0  0
  6  1  4  0  0  0  0
  2  7  1  0  0  0  0
  5  8  1  0  0  0  0
  9 10  4  0  0  0  0
 10 11  4  0  0  0  0
 11 12  4  0  0  0  0
 12 13  4  0  0  0  0
 13 14  4  0  0  0  0
 14  9  4  0  0  0  0
  9 15  1  0  0  0  0
 15 16  1  0  0  0  0
 10 17  1  0  0  0  0
  8 18  1  0  0  0  0
 18 19  4  0  0  0  0
 18 20  4  0  0  0  0
 20 21  4  0  0  0  0
 21 22  4  0  0  0  0
 22 23  4  0  0  0  0
 23 19  4  0  0  0  0
 23 24  1  0  0  0  0
 20 25  1  0  0  0  0
 25 26  1  0  0  0  0
 22 27  1  0  0  0  0
 16 28  1  0  0  0  0
 16 29  1  0  0  0  0
 15 30  2  0  0  0  0
 15 31  2  0  0  0  0
 27 32  1  0  0  0  0
 32 33  3  0  0  0  0
M  END
> <From>
www.bindingDB.org

> <BindingDB Reactant_set_id>
556961

> <Ligand InChI>
InChI=1S/C23H24ClN5O3S/c1-14(2)33(30,31)21-8-6-5-7-18(21)27-22-17(24)13-26-23(29-22)28-19-11-15(3)16(9-10-25)12-20(19)32-4/h5-8,11-14H,9H2,1-4H3,(H2,26,27,28,29)

> <Ligand InChI Key>
CKOFEFWHTQQMLF-UHFFFAOYSA-N

> <BindingDB MonomerID>
291983

> <BindingDB Ligand Name>
US10100019, Example 53

> <Target Name Assigned by Curator or DataSource>
ALK tyrosine kinase receptor

> <Target Source Organism According to Curator or DataSource>
Homo sapiens

> <Ki (nM)>


> <IC50 (nM)>
 21.0

> <Kd (nM)>


> <EC50 (nM)>


> <kon (M-1-s-1)>


> <koff (s-1)>


> <pH>


> <Temp C>
25.00

> <Curation/DataSource>
US Patent

> <Article DOI>
10.1016/j.bmcl.2006.04.076

> <PMID>


> <PubChem AID>


> <Patent Number>
US10100019

> <Authors>
Kim, P; Kim, HR; Cho, SY; Ha, JD; Jung, HJ; Yun, CS; Hwang, JY; Park, CH; Lee, CO; Ahn, S; Chae, CH

> <Institution>
Korea Research Institute of Chemical Technology

> <Link to Ligand in BindingDB>
http://www.bindingdb.org/bind/chemsearch/marvin/MolStructure.jsp?monomerid=291983

> <Link to Ligand-Target Pair in BindingDB>
http://www.bindingdb.org/jsp/dbsearch/PrimarySearch_ki.jsp?energyterm=kJ/mole&tag=pol&polymerid=5809&target=ALK+tyrosine+kinase+receptor&column=ki&startPg=0&Increment=50&submit=Search

> <Link to Ligand-Target Pair in BindingDB>
http://www.bindingdb.org/jsp/dbsearch/PrimarySearch_ki.jsp?energyterm=kJ/mole&tag=r21&monomerid=291983&enzyme=ALK+tyrosine+kinase+receptor&column=ki&startPg=0&Increment=50&submit=Search

> <Ligand HET ID in PDB>


> <PDB ID(s) for Ligand-Target Complex>


> <PubChem CID>
134449962

> <PubChem SID>
381612282

> <ChEBI ID of Ligand>


> <ChEMBL ID of Ligand>


> <DrugBank ID of Ligand>


> <IUPHAR_GRAC ID of Ligand>


> <KEGG ID of Ligand>


> <ZINC ID of Ligand>


> <Number of Protein Chains in Target (>1 implies a multichain complex)>
1

> <BindingDB Target Chain Sequence>
MGAIGLLWLLPLLLSTAAVGSGMGTGQRAGSPAAGPPLQPREPLSYSRLQRKSLAVDFVVPSLFRVYARDLLLPPSSSELKAGRPEARGSLALDCAPLLRLLGPAPGVSWTAGSPAPAEARTLSRVLKGGSVRKLRRAKQLVLELGEEAILEGCVGPPGEAAVGLLQFNLSELFSWWIRQGEGRLRIRLMPEKKASEVGREGRLSAAIRASQPRLLFQIFGTGHSSLESPTNMPSPSPDYFTWNLTWIMKDSFPFLSHRSRYGLECSFDFPCELEYSPPLHDLRNQSWSWRRIPSEEASQMDLLDGPGAERSKEMPRGSFLLLNTSADSKHTILSPWMRSSSEHCTLAVSVHRHLQPSGRYIAQLLPHNEAAREILLMPTPGKHGWTVLQGRIGRPDNPFRVALEYISSGNRSLSAVDFFALKNCSEGTSPGSKMALQSSFTCWNGTVLQLGQACDFHQDCAQGEDESQMCRKLPVGFYCNFEDGFCGWTQGTLSPHTPQWQVRTLKDARFQDHQDHALLLSTTDVPASESATVTSATFPAPIKSSPCELRMSWLIRGVLRGNVSLVLVENKTGKEQGRMVWHVAAYEGLSLWQWMVLPLLDVSDRFWLQMVAWWGQGSRAIVAFDNISISLDCYLTISGEDKILQNTAPKSRNLFERNPNKELKPGENSPRQTPIFDPTVHWLFTTCGASGPHGPTQAQCNNAYQNSNLSVEVGSEGPLKGIQIWKVPATDTYSISGYGAAGGKGGKNTMMRSHGVSVLGIFNLEKDDMLYILVGQQGEDACPSTNQLIQKVCIGENNVIEEEIRVNRSVHEWAGGGGGGGGATYVFKMKDGVPVPLIIAAGGGGRAYGAKTDTFHPERLENNSSVLGLNGNSGAAGGGGGWNDNTSLLWAGKSLQEGATGGHSCPQAMKKWGWETRGGFGGGGGGCSSGGGGGGYIGGNAASNNDPEMDGEDGVSFISPLGILYTPALKVMEGHGEVNIKHYLNCSHCEVDECHMDPESHKVICFCDHGTVLAEDGVSCIVSPTPEPHLPLSLILSVVTSALVAALVLAFSGIMIVYRRKHQELQAMQMELQSPEYKLSKLRTSTIMTDYNPNYCFAGKTSSISDLKEVPRKNITLIRGLGHGAFGEVYEGQVSGMPNDPSPLQVAVKTLPEVCSEQDELDFLMEALIISKFNHQNIVRCIGVSLQSLPRFILLELMAGGDLKSFLRETRPRPSQPSSLAMLDLLHVARDIACGCQYLEENHFIHRDIAARNCLLTCPGPGRVAKIGDFGMARDIYRASYYRKGGCAMLPVKWMPPEAFMEGIFTSKTDTWSFGVLLWEIFSLGYMPYPSKSNQEVLEFVTSGGRMDPPKNCPGPVYRIMTQCWQHQPEDRPNFAIILERIEYCTQDPDVINTALPIEYGPLVEEEEKVPVRPKDPEGVPPLLVSQQAKREEERSPAAPPPLPTTSSGKAAKKPTAAEISVRVPRGPAVEGGHVNMAFSQSNPPSELHKVHGSRNKPTSLWNPTYGSWFTEKPTKKNNPIAKKEPHDRGNLGLEGSCTVPPNVATGRLPGASLLLEPSSLTANMKEVPLFRLRHFPCGNVNYGYQQQGLPLEAATAPGAGHYEDTILKSKNSMNQPGP

> <PDB ID(s) of Target Chain>
2XB7,2XBA,3AOX,5FTO,5FTQ,6E0R,6EBW,6EDL,6MX8

> <UniProt (SwissProt) Recommended Name of Target Chain>
ALK tyrosine kinase receptor

> <UniProt (SwissProt) Entry Name of Target Chain>
ALK_HUMAN

> <UniProt (SwissProt) Primary ID of Target Chain>
Q9UM73

> <UniProt (SwissProt) Secondary ID(s) of Target Chain>
Q4ZFX9,Q53QQ6,Q53RZ4,Q59FI3,Q9Y4K6

> <UniProt (SwissProt) Alternative ID(s) of Target Chain>


> <UniProt (TrEMBL) Submitted Name of Target Chain>


> <UniProt (TrEMBL) Entry Name of Target Chain>


> <UniProt (TrEMBL) Primary ID of Target Chain>


> <UniProt (TrEMBL) Secondary ID(s) of Target Chain>


> <UniProt (TrEMBL) Alternative ID(s) of Target Chain>


$$$$
00192001.cdx
  Mrv0541 02211919242D          

 35 37  0  0  0  0            999 V2000
    0.2171    1.3894    0.0000 C   0  0  0  0  0  0  0  0  0  0  0  0
    0.9316    0.9769    0.0000 C   0  0  0  0  0  0  0  0  0  0  0  0
    0.9316    0.1519    0.0000 C   0  0  0  0  0  0  0  0  0  0  0  0
    0.2171   -0.2606    0.0000 N   0  0  0  0  0  0  0  0  0  0  0  0
   -0.4973    0.1519    0.0000 C   0  0  0  0  0  0  0  0  0  0  0  0
   -0.4973    0.9769    0.0000 N   0  0  0  0  0  0  0  0  0  0  0  0
    1.6461    1.3894    0.0000 Cl  0  0  0  0  0  0  0  0  0  0  0  0
   -1.2118   -0.2606    0.0000 N   0  0  0  0  0  0  0  0  0  0  0  0
    0.9316    3.4519    0.0000 C   0  0  0  0  0  0  0  0  0  0  0  0
    0.9316    2.6269    0.0000 C   0  0  0  0  0  0  0  0  0  0  0  0
    1.6461    2.2144    0.0000 C   0  0  0  0  0  0  0  0  0  0  0  0
    2.3606    2.6269    0.0000 C   0  0  0  0  0  0  0  0  0  0  0  0
    2.3606    3.4519    0.0000 C   0  0  0  0  0  0  0  0  0  0  0  0
    1.6461    3.8644    0.0000 C   0  0  0  0  0  0  0  0  0  0  0  0
    0.2171    3.8644    0.0000 S   0  0  0  0  0  0  0  0  0  0  0  0
   -0.4973    4.2769    0.0000 C   0  0  0  0  0  0  0  0  0  0  0  0
    0.2171    2.2144    0.0000 N   0  0  0  0  0  0  0  0  0  0  0  0
   -1.2118   -1.0856    0.0000 C   0  0  0  0  0  0  0  0  0  0  0  0
   -0.4973   -1.4981    0.0000 C   0  0  0  0  0  0  0  0  0  0  0  0
   -1.9263   -1.4981    0.0000 C   0  0  0  0  0  0  0  0  0  0  0  0
   -1.9263   -2.3231    0.0000 C   0  0  0  0  0  0  0  0  0  0  0  0
   -1.2118   -2.7356    0.0000 C   0  0  0  0  0  0  0  0  0  0  0  0
   -0.4973   -2.3231    0.0000 C   0  0  0  0  0  0  0  0  0  0  0  0
    0.2171   -2.7356    0.0000 C   0  0  0  0  0  0  0  0  0  0  0  0
   -2.6407   -1.0856    0.0000 O   0  0  0  0  0  0  0  0  0  0  0  0
   -3.3552   -1.4981    0.0000 C   0  0  0  0  0  0  0  0  0  0  0  0
   -1.2118   -3.5606    0.0000 C   0  0  0  0  0  0  0  0  0  0  0  0
   -0.4973    5.1019    0.0000 C   0  0  0  0  0  0  0  0  0  0  0  0
   -1.2118    3.8644    0.0000 C   0  0  0  0  0  0  0  0  0  0  0  0
    0.6296    4.5789    0.0000 O   0  0  0  0  0  0  0  0  0  0  0  0
   -0.1954    3.1500    0.0000 O   0  0  0  0  0  0  0  0  0  0  0  0
   -2.0368   -3.5606    0.0000 C   0  0  0  0  0  0  0  0  0  0  0  0
   -0.3868   -3.5606    0.0000 C   0  0  0  0  0  0  0  0  0  0  0  0
   -1.2118   -4.3856    0.0000 C   0  0  0  0  0  0  0  0  0  0  0  0
   -1.2118   -5.2106    0.0000 N   0  0  0  0  0  0  0  0  0  0  0  0
 17  1  1  0  0  0  0
  1  2  4  0  0  0  0
  2  3  4  0  0  0  0
  3  4  4  0  0  0  0
  4  5  4  0  0  0  0
  5  6  4  0  0  0  0
  6  1  4  0  0  0  0
  2  7  1  0  0  0  0
  5  8  1  0  0  0  0
  9 10  4  0  0  0  0
 10 11  4  0  0  0  0
 11 12  4  0  0  0  0
 12 13  4  0  0  0  0
 13 14  4  0  0  0  0
 14  9  4  0  0  0  0
  9 15  1  0  0  0  0
 15 16  1  0  0  0  0
 10 17  1  0  0  0  0
  8 18  1  0  0  0  0
 18 19  4  0  0  0  0
 18 20  4  0  0  0  0
 20 21  4  0  0  0  0
 21 22  4  0  0  0  0
 22 23  4  0  0  0  0
 23 19  4  0  0  0  0
 23 24  1  0  0  0  0
 20 25  1  0  0  0  0
 25 26  1  0  0  0  0
 22 27  1  0  0  0  0
 16 28  1  0  0  0  0
 16 29  1  0  0  0  0
 15 30  2  0  0  0  0
 15 31  2  0  0  0  0
 27 32  1  0  0  0  0
 27 33  1  0  0  0  0
 27 34  1  0  0  0  0
 34 35  3  0  0  0  0
M  END
> <From>
www.bindingDB.org

> <BindingDB Reactant_set_id>
556962

> <Ligand InChI>
InChI=1S/C25H28ClN5O3S/c1-15(2)35(32,33)22-10-8-7-9-19(22)29-23-18(26)13-28-24(31-23)30-20-11-16(3)17(12-21(20)34-6)25(4,5)14-27/h7-13,15H,1-6H3,(H2,28,29,30,31)

> <Ligand InChI Key>
AXLAIMYZOBLZAF-UHFFFAOYSA-N

> <BindingDB MonomerID>
291984

> <BindingDB Ligand Name>
US10100019, Example 54

> <Target Name Assigned by Curator or DataSource>
ALK tyrosine kinase receptor

> <Target Source Organism According to Curator or DataSource>
Homo sapiens

> <Ki (nM)>


> <IC50 (nM)>
 200

> <Kd (nM)>


> <EC50 (nM)>


> <kon (M-1-s-1)>


> <koff (s-1)>


> <pH>


> <Temp C>
25.00

> <Curation/DataSource>
US Patent

> <Article DOI>
10.1016/j.bmcl.2006.04.076

> <PMID>


> <PubChem AID>


> <Patent Number>
US10100019

> <Authors>
Kim, P; Kim, HR; Cho, SY; Ha, JD; Jung, HJ; Yun, CS; Hwang, JY; Park, CH; Lee, CO; Ahn, S; Chae, CH

> <Institution>
Korea Research Institute of Chemical Technology

> <Link to Ligand in BindingDB>
http://www.bindingdb.org/bind/chemsearch/marvin/MolStructure.jsp?monomerid=291984

> <Link to Ligand-Target Pair in BindingDB>
http://www.bindingdb.org/jsp/dbsearch/PrimarySearch_ki.jsp?energyterm=kJ/mole&tag=pol&polymerid=5809&target=ALK+tyrosine+kinase+receptor&column=ki&startPg=0&Increment=50&submit=Search

> <Link to Ligand-Target Pair in BindingDB>
http://www.bindingdb.org/jsp/dbsearch/PrimarySearch_ki.jsp?energyterm=kJ/mole&tag=r21&monomerid=291984&enzyme=ALK+tyrosine+kinase+receptor&column=ki&startPg=0&Increment=50&submit=Search

> <Ligand HET ID in PDB>


> <PDB ID(s) for Ligand-Target Complex>


> <PubChem CID>
134449964

> <PubChem SID>
381612283

> <ChEBI ID of Ligand>


> <ChEMBL ID of Ligand>


> <DrugBank ID of Ligand>


> <IUPHAR_GRAC ID of Ligand>


> <KEGG ID of Ligand>


> <ZINC ID of Ligand>


> <Number of Protein Chains in Target (>1 implies a multichain complex)>
1

> <BindingDB Target Chain Sequence>
MGAIGLLWLLPLLLSTAAVGSGMGTGQRAGSPAAGPPLQPREPLSYSRLQRKSLAVDFVVPSLFRVYARDLLLPPSSSELKAGRPEARGSLALDCAPLLRLLGPAPGVSWTAGSPAPAEARTLSRVLKGGSVRKLRRAKQLVLELGEEAILEGCVGPPGEAAVGLLQFNLSELFSWWIRQGEGRLRIRLMPEKKASEVGREGRLSAAIRASQPRLLFQIFGTGHSSLESPTNMPSPSPDYFTWNLTWIMKDSFPFLSHRSRYGLECSFDFPCELEYSPPLHDLRNQSWSWRRIPSEEASQMDLLDGPGAERSKEMPRGSFLLLNTSADSKHTILSPWMRSSSEHCTLAVSVHRHLQPSGRYIAQLLPHNEAAREILLMPTPGKHGWTVLQGRIGRPDNPFRVALEYISSGNRSLSAVDFFALKNCSEGTSPGSKMALQSSFTCWNGTVLQLGQACDFHQDCAQGEDESQMCRKLPVGFYCNFEDGFCGWTQGTLSPHTPQWQVRTLKDARFQDHQDHALLLSTTDVPASESATVTSATFPAPIKSSPCELRMSWLIRGVLRGNVSLVLVENKTGKEQGRMVWHVAAYEGLSLWQWMVLPLLDVSDRFWLQMVAWWGQGSRAIVAFDNISISLDCYLTISGEDKILQNTAPKSRNLFERNPNKELKPGENSPRQTPIFDPTVHWLFTTCGASGPHGPTQAQCNNAYQNSNLSVEVGSEGPLKGIQIWKVPATDTYSISGYGAAGGKGGKNTMMRSHGVSVLGIFNLEKDDMLYILVGQQGEDACPSTNQLIQKVCIGENNVIEEEIRVNRSVHEWAGGGGGGGGATYVFKMKDGVPVPLIIAAGGGGRAYGAKTDTFHPERLENNSSVLGLNGNSGAAGGGGGWNDNTSLLWAGKSLQEGATGGHSCPQAMKKWGWETRGGFGGGGGGCSSGGGGGGYIGGNAASNNDPEMDGEDGVSFISPLGILYTPALKVMEGHGEVNIKHYLNCSHCEVDECHMDPESHKVICFCDHGTVLAEDGVSCIVSPTPEPHLPLSLILSVVTSALVAALVLAFSGIMIVYRRKHQELQAMQMELQSPEYKLSKLRTSTIMTDYNPNYCFAGKTSSISDLKEVPRKNITLIRGLGHGAFGEVYEGQVSGMPNDPSPLQVAVKTLPEVCSEQDELDFLMEALIISKFNHQNIVRCIGVSLQSLPRFILLELMAGGDLKSFLRETRPRPSQPSSLAMLDLLHVARDIACGCQYLEENHFIHRDIAARNCLLTCPGPGRVAKIGDFGMARDIYRASYYRKGGCAMLPVKWMPPEAFMEGIFTSKTDTWSFGVLLWEIFSLGYMPYPSKSNQEVLEFVTSGGRMDPPKNCPGPVYRIMTQCWQHQPEDRPNFAIILERIEYCTQDPDVINTALPIEYGPLVEEEEKVPVRPKDPEGVPPLLVSQQAKREEERSPAAPPPLPTTSSGKAAKKPTAAEISVRVPRGPAVEGGHVNMAFSQSNPPSELHKVHGSRNKPTSLWNPTYGSWFTEKPTKKNNPIAKKEPHDRGNLGLEGSCTVPPNVATGRLPGASLLLEPSSLTANMKEVPLFRLRHFPCGNVNYGYQQQGLPLEAATAPGAGHYEDTILKSKNSMNQPGP

> <PDB ID(s) of Target Chain>
2XB7,2XBA,3AOX,5FTO,5FTQ,6E0R,6EBW,6EDL,6MX8

> <UniProt (SwissProt) Recommended Name of Target Chain>
ALK tyrosine kinase receptor

> <UniProt (SwissProt) Entry Name of Target Chain>
ALK_HUMAN

> <UniProt (SwissProt) Primary ID of Target Chain>
Q9UM73

> <UniProt (SwissProt) Secondary ID(s) of Target Chain>
Q4ZFX9,Q53QQ6,Q53RZ4,Q59FI3,Q9Y4K6

> <UniProt (SwissProt) Alternative ID(s) of Target Chain>


> <UniProt (TrEMBL) Submitted Name of Target Chain>


> <UniProt (TrEMBL) Entry Name of Target Chain>


> <UniProt (TrEMBL) Primary ID of Target Chain>


> <UniProt (TrEMBL) Secondary ID(s) of Target Chain>


> <UniProt (TrEMBL) Alternative ID(s) of Target Chain>


$$$$
00187001.cdx
  Mrv0541 02211919242D          

 33 35  0  0  0  0            999 V2000
   -1.9341    0.0854    0.0000 C   0  0  0  0  0  0  0  0  0  0  0  0
   -2.6486   -0.3271    0.0000 C   0  0  0  0  0  0  0  0  0  0  0  0
   -2.6486   -1.1521    0.0000 C   0  0  0  0  0  0  0  0  0  0  0  0
   -1.9341   -1.5646    0.0000 N   0  0  0  0  0  0  0  0  0  0  0  0
   -1.2197   -1.1521    0.0000 C   0  0  0  0  0  0  0  0  0  0  0  0
   -1.2197   -0.3271    0.0000 N   0  0  0  0  0  0  0  0  0  0  0  0
   -3.3631    0.0854    0.0000 Cl  0  0  0  0  0  0  0  0  0  0  0  0
   -0.5052   -1.5646    0.0000 N   0  0  0  0  0  0  0  0  0  0  0  0
   -1.2197    2.1479    0.0000 C   0  0  0  0  0  0  0  0  0  0  0  0
   -1.2197    1.3229    0.0000 C   0  0  0  0  0  0  0  0  0  0  0  0
   -0.5052    0.9104    0.0000 C   0  0  0  0  0  0  0  0  0  0  0  0
    0.2093    1.3229    0.0000 C   0  0  0  0  0  0  0  0  0  0  0  0
    0.2093    2.1479    0.0000 C   0  0  0  0  0  0  0  0  0  0  0  0
   -0.5052    2.5604    0.0000 C   0  0  0  0  0  0  0  0  0  0  0  0
   -1.9341    2.5604    0.0000 S   0  0  0  0  0  0  0  0  0  0  0  0
   -2.6486    2.1479    0.0000 C   0  0  0  0  0  0  0  0  0  0  0  0
   -1.9341    0.9104    0.0000 N   0  0  0  0  0  0  0  0  0  0  0  0
    0.2093   -1.1521    0.0000 C   0  0  0  0  0  0  0  0  0  0  0  0
    0.2093   -0.3271    0.0000 C   0  0  0  0  0  0  0  0  0  0  0  0
    0.9237   -1.5646    0.0000 C   0  0  0  0  0  0  0  0  0  0  0  0
    1.6382   -1.1521    0.0000 C   0  0  0  0  0  0  0  0  0  0  0  0
    1.6382   -0.3271    0.0000 C   0  0  0  0  0  0  0  0  0  0  0  0
    0.9237    0.0854    0.0000 C   0  0  0  0  0  0  0  0  0  0  0  0
    0.9237    0.9104    0.0000 C   0  0  0  0  0  0  0  0  0  0  0  0
    0.9237   -2.3896    0.0000 O   0  0  0  0  0  0  0  0  0  0  0  0
    1.5071   -2.9729    0.0000 C   0  0  0  0  0  0  0  0  0  0  0  0
    2.3527    0.0854    0.0000 C   0  0  0  0  0  0  0  0  0  0  0  0
   -3.3631    2.5604    0.0000 C   0  0  0  0  0  0  0  0  0  0  0  0
   -2.6486    1.3229    0.0000 C   0  0  0  0  0  0  0  0  0  0  0  0
   -2.6486    2.9729    0.0000 O   0  0  0  0  0  0  0  0  0  0  0  0
   -1.2197    2.9729    0.0000 O   0  0  0  0  0  0  0  0  0  0  0  0
    2.5662    0.8823    0.0000 C   0  0  0  0  0  0  0  0  0  0  0  0
    3.3631    1.0958    0.0000 N   0  0  0  0  0  0  0  0  0  0  0  0
 17  1  1  0  0  0  0
  1  2  4  0  0  0  0
  2  3  4  0  0  0  0
  3  4  4  0  0  0  0
  4  5  4  0  0  0  0
  5  6  4  0  0  0  0
  6  1  4  0  0  0  0
  2  7  1  0  0  0  0
  5  8  1  0  0  0  0
  9 10  4  0  0  0  0
 10 11  4  0  0  0  0
 11 12  4  0  0  0  0
 12 13  4  0  0  0  0
 13 14  4  0  0  0  0
 14  9  4  0  0  0  0
  9 15  1  0  0  0  0
 15 16  1  0  0  0  0
 10 17  1  0  0  0  0
  8 18  1  0  0  0  0
 18 19  4  0  0  0  0
 18 20  4  0  0  0  0
 20 21  4  0  0  0  0
 21 22  4  0  0  0  0
 22 23  4  0  0  0  0
 23 19  4  0  0  0  0
 23 24  1  0  0  0  0
 20 25  1  0  0  0  0
 25 26  1  0  0  0  0
 22 27  1  0  0  0  0
 16 28  1  0  0  0  0
 16 29  1  0  0  0  0
 15 30  2  0  0  0  0
 15 31  2  0  0  0  0
 27 32  1  0  0  0  0
 32 33  1  0  0  0  0
M  END
> <From>
www.bindingDB.org

> <BindingDB Reactant_set_id>
556963

> <Ligand InChI>
InChI=1S/C23H28ClN5O3S/c1-14(2)33(30,31)21-8-6-5-7-18(21)27-22-17(24)13-26-23(29-22)28-19-11-15(3)16(9-10-25)12-20(19)32-4/h5-8,11-14H,9-10,25H2,1-4H3,(H2,26,27,28,29)

> <Ligand InChI Key>
GUUUIDZRGJYTMH-UHFFFAOYSA-N

> <BindingDB MonomerID>
291985

> <BindingDB Ligand Name>
US10100019, Example 55

> <Target Name Assigned by Curator or DataSource>
ALK tyrosine kinase receptor

> <Target Source Organism According to Curator or DataSource>
Homo sapiens

> <Ki (nM)>


> <IC50 (nM)>
 2.70

> <Kd (nM)>


> <EC50 (nM)>


> <kon (M-1-s-1)>


> <koff (s-1)>


> <pH>


> <Temp C>
25.00

> <Curation/DataSource>
US Patent

> <Article DOI>
10.1016/j.bmcl.2006.04.076

> <PMID>


> <PubChem AID>


> <Patent Number>
US10100019

> <Authors>
Kim, P; Kim, HR; Cho, SY; Ha, JD; Jung, HJ; Yun, CS; Hwang, JY; Park, CH; Lee, CO; Ahn, S; Chae, CH

> <Institution>
Korea Research Institute of Chemical Technology

> <Link to Ligand in BindingDB>
http://www.bindingdb.org/bind/chemsearch/marvin/MolStructure.jsp?monomerid=291985

> <Link to Ligand-Target Pair in BindingDB>
http://www.bindingdb.org/jsp/dbsearch/PrimarySearch_ki.jsp?energyterm=kJ/mole&tag=pol&polymerid=5809&target=ALK+tyrosine+kinase+receptor&column=ki&startPg=0&Increment=50&submit=Search

> <Link to Ligand-Target Pair in BindingDB>
http://www.bindingdb.org/jsp/dbsearch/PrimarySearch_ki.jsp?energyterm=kJ/mole&tag=r21&monomerid=291985&enzyme=ALK+tyrosine+kinase+receptor&column=ki&startPg=0&Increment=50&submit=Search

> <Ligand HET ID in PDB>


> <PDB ID(s) for Ligand-Target Complex>


> <PubChem CID>
134449967

> <PubChem SID>
381612284

> <ChEBI ID of Ligand>


> <ChEMBL ID of Ligand>


> <DrugBank ID of Ligand>


> <IUPHAR_GRAC ID of Ligand>


> <KEGG ID of Ligand>


> <ZINC ID of Ligand>


> <Number of Protein Chains in Target (>1 implies a multichain complex)>
1

> <BindingDB Target Chain Sequence>
MGAIGLLWLLPLLLSTAAVGSGMGTGQRAGSPAAGPPLQPREPLSYSRLQRKSLAVDFVVPSLFRVYARDLLLPPSSSELKAGRPEARGSLALDCAPLLRLLGPAPGVSWTAGSPAPAEARTLSRVLKGGSVRKLRRAKQLVLELGEEAILEGCVGPPGEAAVGLLQFNLSELFSWWIRQGEGRLRIRLMPEKKASEVGREGRLSAAIRASQPRLLFQIFGTGHSSLESPTNMPSPSPDYFTWNLTWIMKDSFPFLSHRSRYGLECSFDFPCELEYSPPLHDLRNQSWSWRRIPSEEASQMDLLDGPGAERSKEMPRGSFLLLNTSADSKHTILSPWMRSSSEHCTLAVSVHRHLQPSGRYIAQLLPHNEAAREILLMPTPGKHGWTVLQGRIGRPDNPFRVALEYISSGNRSLSAVDFFALKNCSEGTSPGSKMALQSSFTCWNGTVLQLGQACDFHQDCAQGEDESQMCRKLPVGFYCNFEDGFCGWTQGTLSPHTPQWQVRTLKDARFQDHQDHALLLSTTDVPASESATVTSATFPAPIKSSPCELRMSWLIRGVLRGNVSLVLVENKTGKEQGRMVWHVAAYEGLSLWQWMVLPLLDVSDRFWLQMVAWWGQGSRAIVAFDNISISLDCYLTISGEDKILQNTAPKSRNLFERNPNKELKPGENSPRQTPIFDPTVHWLFTTCGASGPHGPTQAQCNNAYQNSNLSVEVGSEGPLKGIQIWKVPATDTYSISGYGAAGGKGGKNTMMRSHGVSVLGIFNLEKDDMLYILVGQQGEDACPSTNQLIQKVCIGENNVIEEEIRVNRSVHEWAGGGGGGGGATYVFKMKDGVPVPLIIAAGGGGRAYGAKTDTFHPERLENNSSVLGLNGNSGAAGGGGGWNDNTSLLWAGKSLQEGATGGHSCPQAMKKWGWETRGGFGGGGGGCSSGGGGGGYIGGNAASNNDPEMDGEDGVSFISPLGILYTPALKVMEGHGEVNIKHYLNCSHCEVDECHMDPESHKVICFCDHGTVLAEDGVSCIVSPTPEPHLPLSLILSVVTSALVAALVLAFSGIMIVYRRKHQELQAMQMELQSPEYKLSKLRTSTIMTDYNPNYCFAGKTSSISDLKEVPRKNITLIRGLGHGAFGEVYEGQVSGMPNDPSPLQVAVKTLPEVCSEQDELDFLMEALIISKFNHQNIVRCIGVSLQSLPRFILLELMAGGDLKSFLRETRPRPSQPSSLAMLDLLHVARDIACGCQYLEENHFIHRDIAARNCLLTCPGPGRVAKIGDFGMARDIYRASYYRKGGCAMLPVKWMPPEAFMEGIFTSKTDTWSFGVLLWEIFSLGYMPYPSKSNQEVLEFVTSGGRMDPPKNCPGPVYRIMTQCWQHQPEDRPNFAIILERIEYCTQDPDVINTALPIEYGPLVEEEEKVPVRPKDPEGVPPLLVSQQAKREEERSPAAPPPLPTTSSGKAAKKPTAAEISVRVPRGPAVEGGHVNMAFSQSNPPSELHKVHGSRNKPTSLWNPTYGSWFTEKPTKKNNPIAKKEPHDRGNLGLEGSCTVPPNVATGRLPGASLLLEPSSLTANMKEVPLFRLRHFPCGNVNYGYQQQGLPLEAATAPGAGHYEDTILKSKNSMNQPGP

> <PDB ID(s) of Target Chain>
2XB7,2XBA,3AOX,5FTO,5FTQ,6E0R,6EBW,6EDL,6MX8

> <UniProt (SwissProt) Recommended Name of Target Chain>
ALK tyrosine kinase receptor

> <UniProt (SwissProt) Entry Name of Target Chain>
ALK_HUMAN

> <UniProt (SwissProt) Primary ID of Target Chain>
Q9UM73

> <UniProt (SwissProt) Secondary ID(s) of Target Chain>
Q4ZFX9,Q53QQ6,Q53RZ4,Q59FI3,Q9Y4K6

> <UniProt (SwissProt) Alternative ID(s) of Target Chain>


> <UniProt (TrEMBL) Submitted Name of Target Chain>


> <UniProt (TrEMBL) Entry Name of Target Chain>


> <UniProt (TrEMBL) Primary ID of Target Chain>


> <UniProt (TrEMBL) Secondary ID(s) of Target Chain>


> <UniProt (TrEMBL) Alternative ID(s) of Target Chain>


$$$$
00193001.cdx
  Mrv0541 02211919242D          

 35 37  0  0  0  0            999 V2000
   -1.8489    0.0854    0.0000 C   0  0  0  0  0  0  0  0  0  0  0  0
   -2.5634   -0.3271    0.0000 C   0  0  0  0  0  0  0  0  0  0  0  0
   -2.5634   -1.1521    0.0000 C   0  0  0  0  0  0  0  0  0  0  0  0
   -1.8489   -1.5646    0.0000 N   0  0  0  0  0  0  0  0  0  0  0  0
   -1.1344   -1.1521    0.0000 C   0  0  0  0  0  0  0  0  0  0  0  0
   -1.1344   -0.3271    0.0000 N   0  0  0  0  0  0  0  0  0  0  0  0
   -3.2778    0.0854    0.0000 Cl  0  0  0  0  0  0  0  0  0  0  0  0
   -0.4200   -1.5646    0.0000 N   0  0  0  0  0  0  0  0  0  0  0  0
   -1.1344    2.1479    0.0000 C   0  0  0  0  0  0  0  0  0  0  0  0
   -1.1344    1.3229    0.0000 C   0  0  0  0  0  0  0  0  0  0  0  0
   -0.4200    0.9104    0.0000 C   0  0  0  0  0  0  0  0  0  0  0  0
    0.2945    1.3229    0.0000 C   0  0  0  0  0  0  0  0  0  0  0  0
    0.2945    2.1479    0.0000 C   0  0  0  0  0  0  0  0  0  0  0  0
   -0.4200    2.5604    0.0000 C   0  0  0  0  0  0  0  0  0  0  0  0
   -1.8489    2.5604    0.0000 S   0  0  0  0  0  0  0  0  0  0  0  0
   -2.5634    2.1479    0.0000 C   0  0  0  0  0  0  0  0  0  0  0  0
   -1.8489    0.9104    0.0000 N   0  0  0  0  0  0  0  0  0  0  0  0
    0.2945   -1.1521    0.0000 C   0  0  0  0  0  0  0  0  0  0  0  0
    0.2945   -0.3271    0.0000 C   0  0  0  0  0  0  0  0  0  0  0  0
    1.0090   -1.5646    0.0000 C   0  0  0  0  0  0  0  0  0  0  0  0
    1.7235   -1.1521    0.0000 C   0  0  0  0  0  0  0  0  0  0  0  0
    1.7235   -0.3271    0.0000 C   0  0  0  0  0  0  0  0  0  0  0  0
    1.0090    0.0854    0.0000 C   0  0  0  0  0  0  0  0  0  0  0  0
    1.0090    0.9104    0.0000 C   0  0  0  0  0  0  0  0  0  0  0  0
    1.0090   -2.3896    0.0000 O   0  0  0  0  0  0  0  0  0  0  0  0
    1.5923   -2.9729    0.0000 C   0  0  0  0  0  0  0  0  0  0  0  0
    2.4379    0.0854    0.0000 C   0  0  0  0  0  0  0  0  0  0  0  0
   -3.2778    2.5604    0.0000 C   0  0  0  0  0  0  0  0  0  0  0  0
   -2.5634    1.3229    0.0000 C   0  0  0  0  0  0  0  0  0  0  0  0
   -2.5634    2.9729    0.0000 O   0  0  0  0  0  0  0  0  0  0  0  0
   -1.1344    2.9729    0.0000 O   0  0  0  0  0  0  0  0  0  0  0  0
    2.5242    0.9059    0.0000 C   0  0  0  0  0  0  0  0  0  0  0  0
    3.2629    0.0854    0.0000 C   0  0  0  0  0  0  0  0  0  0  0  0
    2.8504   -0.6290    0.0000 C   0  0  0  0  0  0  0  0  0  0  0  0
    3.2778    1.2415    0.0000 N   0  0  0  0  0  0  0  0  0  0  0  0
 17  1  1  0  0  0  0
  1  2  4  0  0  0  0
  2  3  4  0  0  0  0
  3  4  4  0  0  0  0
  4  5  4  0  0  0  0
  5  6  4  0  0  0  0
  6  1  4  0  0  0  0
  2  7  1  0  0  0  0
  5  8  1  0  0  0  0
  9 10  4  0  0  0  0
 10 11  4  0  0  0  0
 11 12  4  0  0  0  0
 12 13  4  0  0  0  0
 13 14  4  0  0  0  0
 14  9  4  0  0  0  0
  9 15  1  0  0  0  0
 15 16  1  0  0  0  0
 10 17  1  0  0  0  0
  8 18  1  0  0  0  0
 18 19  4  0  0  0  0
 18 20  4  0  0  0  0
 20 21  4  0  0  0  0
 21 22  4  0  0  0  0
 22 23  4  0  0  0  0
 23 19  4  0  0  0  0
 23 24  1  0  0  0  0
 20 25  1  0  0  0  0
 25 26  1  0  0  0  0
 22 27  1  0  0  0  0
 16 28  1  0  0  0  0
 16 29  1  0  0  0  0
 15 30  2  0  0  0  0
 15 31  2  0  0  0  0
 32 27  1  0  0  0  0
 27 33  1  0  0  0  0
 27 34  1  0  0  0  0
 32 35  1  0  0  0  0
M  END
> <From>
www.bindingDB.org

> <BindingDB Reactant_set_id>
556964

> <Ligand InChI>
InChI=1S/C25H32ClN5O3S/c1-15(2)35(32,33)22-10-8-7-9-19(22)29-23-18(26)13-28-24(31-23)30-20-11-16(3)17(12-21(20)34-6)25(4,5)14-27/h7-13,15H,14,27H2,1-6H3,(H2,28,29,30,31)

> <Ligand InChI Key>
IDGLCVJYKNDJCG-UHFFFAOYSA-N

> <BindingDB MonomerID>
291986

> <BindingDB Ligand Name>
US10100019, Example 56

> <Target Name Assigned by Curator or DataSource>
ALK tyrosine kinase receptor

> <Target Source Organism According to Curator or DataSource>
Homo sapiens

> <Ki (nM)>


> <IC50 (nM)>
 4.90

> <Kd (nM)>


> <EC50 (nM)>


> <kon (M-1-s-1)>


> <koff (s-1)>


> <pH>


> <Temp C>
25.00

> <Curation/DataSource>
US Patent

> <Article DOI>
10.1016/j.bmcl.2006.04.076

> <PMID>


> <PubChem AID>


> <Patent Number>
US10100019

> <Authors>
Kim, P; Kim, HR; Cho, SY; Ha, JD; Jung, HJ; Yun, CS; Hwang, JY; Park, CH; Lee, CO; Ahn, S; Chae, CH

> <Institution>
Korea Research Institute of Chemical Technology

> <Link to Ligand in BindingDB>
http://www.bindingdb.org/bind/chemsearch/marvin/MolStructure.jsp?monomerid=291986

> <Link to Ligand-Target Pair in BindingDB>
http://www.bindingdb.org/jsp/dbsearch/PrimarySearch_ki.jsp?energyterm=kJ/mole&tag=pol&polymerid=5809&target=ALK+tyrosine+kinase+receptor&column=ki&startPg=0&Increment=50&submit=Search

> <Link to Ligand-Target Pair in BindingDB>
http://www.bindingdb.org/jsp/dbsearch/PrimarySearch_ki.jsp?energyterm=kJ/mole&tag=r21&monomerid=291986&enzyme=ALK+tyrosine+kinase+receptor&column=ki&startPg=0&Increment=50&submit=Search

> <Ligand HET ID in PDB>


> <PDB ID(s) for Ligand-Target Complex>


> <PubChem CID>
134449966

> <PubChem SID>
381612285

> <ChEBI ID of Ligand>


> <ChEMBL ID of Ligand>


> <DrugBank ID of Ligand>


> <IUPHAR_GRAC ID of Ligand>


> <KEGG ID of Ligand>


> <ZINC ID of Ligand>


> <Number of Protein Chains in Target (>1 implies a multichain complex)>
1

> <BindingDB Target Chain Sequence>
MGAIGLLWLLPLLLSTAAVGSGMGTGQRAGSPAAGPPLQPREPLSYSRLQRKSLAVDFVVPSLFRVYARDLLLPPSSSELKAGRPEARGSLALDCAPLLRLLGPAPGVSWTAGSPAPAEARTLSRVLKGGSVRKLRRAKQLVLELGEEAILEGCVGPPGEAAVGLLQFNLSELFSWWIRQGEGRLRIRLMPEKKASEVGREGRLSAAIRASQPRLLFQIFGTGHSSLESPTNMPSPSPDYFTWNLTWIMKDSFPFLSHRSRYGLECSFDFPCELEYSPPLHDLRNQSWSWRRIPSEEASQMDLLDGPGAERSKEMPRGSFLLLNTSADSKHTILSPWMRSSSEHCTLAVSVHRHLQPSGRYIAQLLPHNEAAREILLMPTPGKHGWTVLQGRIGRPDNPFRVALEYISSGNRSLSAVDFFALKNCSEGTSPGSKMALQSSFTCWNGTVLQLGQACDFHQDCAQGEDESQMCRKLPVGFYCNFEDGFCGWTQGTLSPHTPQWQVRTLKDARFQDHQDHALLLSTTDVPASESATVTSATFPAPIKSSPCELRMSWLIRGVLRGNVSLVLVENKTGKEQGRMVWHVAAYEGLSLWQWMVLPLLDVSDRFWLQMVAWWGQGSRAIVAFDNISISLDCYLTISGEDKILQNTAPKSRNLFERNPNKELKPGENSPRQTPIFDPTVHWLFTTCGASGPHGPTQAQCNNAYQNSNLSVEVGSEGPLKGIQIWKVPATDTYSISGYGAAGGKGGKNTMMRSHGVSVLGIFNLEKDDMLYILVGQQGEDACPSTNQLIQKVCIGENNVIEEEIRVNRSVHEWAGGGGGGGGATYVFKMKDGVPVPLIIAAGGGGRAYGAKTDTFHPERLENNSSVLGLNGNSGAAGGGGGWNDNTSLLWAGKSLQEGATGGHSCPQAMKKWGWETRGGFGGGGGGCSSGGGGGGYIGGNAASNNDPEMDGEDGVSFISPLGILYTPALKVMEGHGEVNIKHYLNCSHCEVDECHMDPESHKVICFCDHGTVLAEDGVSCIVSPTPEPHLPLSLILSVVTSALVAALVLAFSGIMIVYRRKHQELQAMQMELQSPEYKLSKLRTSTIMTDYNPNYCFAGKTSSISDLKEVPRKNITLIRGLGHGAFGEVYEGQVSGMPNDPSPLQVAVKTLPEVCSEQDELDFLMEALIISKFNHQNIVRCIGVSLQSLPRFILLELMAGGDLKSFLRETRPRPSQPSSLAMLDLLHVARDIACGCQYLEENHFIHRDIAARNCLLTCPGPGRVAKIGDFGMARDIYRASYYRKGGCAMLPVKWMPPEAFMEGIFTSKTDTWSFGVLLWEIFSLGYMPYPSKSNQEVLEFVTSGGRMDPPKNCPGPVYRIMTQCWQHQPEDRPNFAIILERIEYCTQDPDVINTALPIEYGPLVEEEEKVPVRPKDPEGVPPLLVSQQAKREEERSPAAPPPLPTTSSGKAAKKPTAAEISVRVPRGPAVEGGHVNMAFSQSNPPSELHKVHGSRNKPTSLWNPTYGSWFTEKPTKKNNPIAKKEPHDRGNLGLEGSCTVPPNVATGRLPGASLLLEPSSLTANMKEVPLFRLRHFPCGNVNYGYQQQGLPLEAATAPGAGHYEDTILKSKNSMNQPGP

> <PDB ID(s) of Target Chain>
2XB7,2XBA,3AOX,5FTO,5FTQ,6E0R,6EBW,6EDL,6MX8

> <UniProt (SwissProt) Recommended Name of Target Chain>
ALK tyrosine kinase receptor

> <UniProt (SwissProt) Entry Name of Target Chain>
ALK_HUMAN

> <UniProt (SwissProt) Primary ID of Target Chain>
Q9UM73

> <UniProt (SwissProt) Secondary ID(s) of Target Chain>
Q4ZFX9,Q53QQ6,Q53RZ4,Q59FI3,Q9Y4K6

> <UniProt (SwissProt) Alternative ID(s) of Target Chain>


> <UniProt (TrEMBL) Submitted Name of Target Chain>


> <UniProt (TrEMBL) Entry Name of Target Chain>


> <UniProt (TrEMBL) Primary ID of Target Chain>


> <UniProt (TrEMBL) Secondary ID(s) of Target Chain>


> <UniProt (TrEMBL) Alternative ID(s) of Target Chain>


$$$$
00188001.cdx
  Mrv0541 02211919242D          

 34 36  0  0  0  0            999 V2000
   -1.8414    0.0854    0.0000 C   0  0  0  0  0  0  0  0  0  0  0  0
   -2.5559   -0.3271    0.0000 C   0  0  0  0  0  0  0  0  0  0  0  0
   -2.5559   -1.1521    0.0000 C   0  0  0  0  0  0  0  0  0  0  0  0
   -1.8414   -1.5646    0.0000 N   0  0  0  0  0  0  0  0  0  0  0  0
   -1.1270   -1.1521    0.0000 C   0  0  0  0  0  0  0  0  0  0  0  0
   -1.1270   -0.3271    0.0000 N   0  0  0  0  0  0  0  0  0  0  0  0
   -3.2704    0.0854    0.0000 Cl  0  0  0  0  0  0  0  0  0  0  0  0
   -0.4125   -1.5646    0.0000 N   0  0  0  0  0  0  0  0  0  0  0  0
   -1.1270    2.1479    0.0000 C   0  0  0  0  0  0  0  0  0  0  0  0
   -1.1270    1.3229    0.0000 C   0  0  0  0  0  0  0  0  0  0  0  0
   -0.4125    0.9104    0.0000 C   0  0  0  0  0  0  0  0  0  0  0  0
    0.3020    1.3229    0.0000 C   0  0  0  0  0  0  0  0  0  0  0  0
    0.3020    2.1479    0.0000 C   0  0  0  0  0  0  0  0  0  0  0  0
   -0.4125    2.5604    0.0000 C   0  0  0  0  0  0  0  0  0  0  0  0
   -1.8414    2.5604    0.0000 S   0  0  0  0  0  0  0  0  0  0  0  0
   -2.5559    2.1479    0.0000 C   0  0  0  0  0  0  0  0  0  0  0  0
   -1.8414    0.9104    0.0000 N   0  0  0  0  0  0  0  0  0  0  0  0
    0.3020   -1.1521    0.0000 C   0  0  0  0  0  0  0  0  0  0  0  0
    0.3020   -0.3271    0.0000 C   0  0  0  0  0  0  0  0  0  0  0  0
    1.0164   -1.5646    0.0000 C   0  0  0  0  0  0  0  0  0  0  0  0
    1.7309   -1.1521    0.0000 C   0  0  0  0  0  0  0  0  0  0  0  0
    1.7309   -0.3271    0.0000 C   0  0  0  0  0  0  0  0  0  0  0  0
    1.0164    0.0854    0.0000 C   0  0  0  0  0  0  0  0  0  0  0  0
    1.0164    0.9104    0.0000 C   0  0  0  0  0  0  0  0  0  0  0  0
    1.0164   -2.3896    0.0000 O   0  0  0  0  0  0  0  0  0  0  0  0
    1.5998   -2.9729    0.0000 C   0  0  0  0  0  0  0  0  0  0  0  0
    2.4454    0.0854    0.0000 C   0  0  0  0  0  0  0  0  0  0  0  0
   -3.2704    2.5604    0.0000 C   0  0  0  0  0  0  0  0  0  0  0  0
   -2.5559    1.3229    0.0000 C   0  0  0  0  0  0  0  0  0  0  0  0
   -2.5559    2.9729    0.0000 O   0  0  0  0  0  0  0  0  0  0  0  0
   -1.1270    2.9729    0.0000 O   0  0  0  0  0  0  0  0  0  0  0  0
    2.6589    0.8823    0.0000 C   0  0  0  0  0  0  0  0  0  0  0  0
    2.8579   -0.6290    0.0000 C   0  0  0  0  0  0  0  0  0  0  0  0
    3.2704    0.0854    0.0000 N   0  0  0  0  0  0  0  0  0  0  0  0
 17  1  1  0  0  0  0
  1  2  4  0  0  0  0
  2  3  4  0  0  0  0
  3  4  4  0  0  0  0
  4  5  4  0  0  0  0
  5  6  4  0  0  0  0
  6  1  4  0  0  0  0
  2  7  1  0  0  0  0
  5  8  1  0  0  0  0
  9 10  4  0  0  0  0
 10 11  4  0  0  0  0
 11 12  4  0  0  0  0
 12 13  4  0  0  0  0
 13 14  4  0  0  0  0
 14  9  4  0  0  0  0
  9 15  1  0  0  0  0
 15 16  1  0  0  0  0
 10 17  1  0  0  0  0
  8 18  1  0  0  0  0
 18 19  4  0  0  0  0
 18 20  4  0  0  0  0
 20 21  4  0  0  0  0
 21 22  4  0  0  0  0
 22 23  4  0  0  0  0
 23 19  4  0  0  0  0
 23 24  1  0  0  0  0
 20 25  1  0  0  0  0
 25 26  1  0  0  0  0
 22 27  1  0  0  0  0
 16 28  1  0  0  0  0
 16 29  1  0  0  0  0
 15 30  2  0  0  0  0
 15 31  2  0  0  0  0
 27 32  1  0  0  0  0
 27 33  1  0  0  0  0
 27 34  1  0  0  0  0
M  END
> <From>
www.bindingDB.org

> <BindingDB Reactant_set_id>
556965

> <Ligand InChI>
InChI=1S/C24H30ClN5O3S/c1-14(2)34(31,32)21-10-8-7-9-18(21)28-22-17(25)13-27-23(30-22)29-19-11-15(3)16(24(4,5)26)12-20(19)33-6/h7-14H,26H2,1-6H3,(H2,27,28,29,30)

> <Ligand InChI Key>
DNEAWOPYODVHIL-UHFFFAOYSA-N

> <BindingDB MonomerID>
291987

> <BindingDB Ligand Name>
US10100019, Example 57

> <Target Name Assigned by Curator or DataSource>
ALK tyrosine kinase receptor

> <Target Source Organism According to Curator or DataSource>
Homo sapiens

> <Ki (nM)>


> <IC50 (nM)>
 1.50

> <Kd (nM)>


> <EC50 (nM)>


> <kon (M-1-s-1)>


> <koff (s-1)>


> <pH>


> <Temp C>
25.00

> <Curation/DataSource>
US Patent

> <Article DOI>
10.1016/j.bmcl.2006.04.076

> <PMID>


> <PubChem AID>


> <Patent Number>
US10100019

> <Authors>
Kim, P; Kim, HR; Cho, SY; Ha, JD; Jung, HJ; Yun, CS; Hwang, JY; Park, CH; Lee, CO; Ahn, S; Chae, CH

> <Institution>
Korea Research Institute of Chemical Technology

> <Link to Ligand in BindingDB>
http://www.bindingdb.org/bind/chemsearch/marvin/MolStructure.jsp?monomerid=291987

> <Link to Ligand-Target Pair in BindingDB>
http://www.bindingdb.org/jsp/dbsearch/PrimarySearch_ki.jsp?energyterm=kJ/mole&tag=pol&polymerid=5809&target=ALK+tyrosine+kinase+receptor&column=ki&startPg=0&Increment=50&submit=Search

> <Link to Ligand-Target Pair in BindingDB>
http://www.bindingdb.org/jsp/dbsearch/PrimarySearch_ki.jsp?energyterm=kJ/mole&tag=r21&monomerid=291987&enzyme=ALK+tyrosine+kinase+receptor&column=ki&startPg=0&Increment=50&submit=Search

> <Ligand HET ID in PDB>


> <PDB ID(s) for Ligand-Target Complex>


> <PubChem CID>
134449969

> <PubChem SID>
381612286

> <ChEBI ID of Ligand>


> <ChEMBL ID of Ligand>


> <DrugBank ID of Ligand>


> <IUPHAR_GRAC ID of Ligand>


> <KEGG ID of Ligand>


> <ZINC ID of Ligand>


> <Number of Protein Chains in Target (>1 implies a multichain complex)>
1

> <BindingDB Target Chain Sequence>
MGAIGLLWLLPLLLSTAAVGSGMGTGQRAGSPAAGPPLQPREPLSYSRLQRKSLAVDFVVPSLFRVYARDLLLPPSSSELKAGRPEARGSLALDCAPLLRLLGPAPGVSWTAGSPAPAEARTLSRVLKGGSVRKLRRAKQLVLELGEEAILEGCVGPPGEAAVGLLQFNLSELFSWWIRQGEGRLRIRLMPEKKASEVGREGRLSAAIRASQPRLLFQIFGTGHSSLESPTNMPSPSPDYFTWNLTWIMKDSFPFLSHRSRYGLECSFDFPCELEYSPPLHDLRNQSWSWRRIPSEEASQMDLLDGPGAERSKEMPRGSFLLLNTSADSKHTILSPWMRSSSEHCTLAVSVHRHLQPSGRYIAQLLPHNEAAREILLMPTPGKHGWTVLQGRIGRPDNPFRVALEYISSGNRSLSAVDFFALKNCSEGTSPGSKMALQSSFTCWNGTVLQLGQACDFHQDCAQGEDESQMCRKLPVGFYCNFEDGFCGWTQGTLSPHTPQWQVRTLKDARFQDHQDHALLLSTTDVPASESATVTSATFPAPIKSSPCELRMSWLIRGVLRGNVSLVLVENKTGKEQGRMVWHVAAYEGLSLWQWMVLPLLDVSDRFWLQMVAWWGQGSRAIVAFDNISISLDCYLTISGEDKILQNTAPKSRNLFERNPNKELKPGENSPRQTPIFDPTVHWLFTTCGASGPHGPTQAQCNNAYQNSNLSVEVGSEGPLKGIQIWKVPATDTYSISGYGAAGGKGGKNTMMRSHGVSVLGIFNLEKDDMLYILVGQQGEDACPSTNQLIQKVCIGENNVIEEEIRVNRSVHEWAGGGGGGGGATYVFKMKDGVPVPLIIAAGGGGRAYGAKTDTFHPERLENNSSVLGLNGNSGAAGGGGGWNDNTSLLWAGKSLQEGATGGHSCPQAMKKWGWETRGGFGGGGGGCSSGGGGGGYIGGNAASNNDPEMDGEDGVSFISPLGILYTPALKVMEGHGEVNIKHYLNCSHCEVDECHMDPESHKVICFCDHGTVLAEDGVSCIVSPTPEPHLPLSLILSVVTSALVAALVLAFSGIMIVYRRKHQELQAMQMELQSPEYKLSKLRTSTIMTDYNPNYCFAGKTSSISDLKEVPRKNITLIRGLGHGAFGEVYEGQVSGMPNDPSPLQVAVKTLPEVCSEQDELDFLMEALIISKFNHQNIVRCIGVSLQSLPRFILLELMAGGDLKSFLRETRPRPSQPSSLAMLDLLHVARDIACGCQYLEENHFIHRDIAARNCLLTCPGPGRVAKIGDFGMARDIYRASYYRKGGCAMLPVKWMPPEAFMEGIFTSKTDTWSFGVLLWEIFSLGYMPYPSKSNQEVLEFVTSGGRMDPPKNCPGPVYRIMTQCWQHQPEDRPNFAIILERIEYCTQDPDVINTALPIEYGPLVEEEEKVPVRPKDPEGVPPLLVSQQAKREEERSPAAPPPLPTTSSGKAAKKPTAAEISVRVPRGPAVEGGHVNMAFSQSNPPSELHKVHGSRNKPTSLWNPTYGSWFTEKPTKKNNPIAKKEPHDRGNLGLEGSCTVPPNVATGRLPGASLLLEPSSLTANMKEVPLFRLRHFPCGNVNYGYQQQGLPLEAATAPGAGHYEDTILKSKNSMNQPGP

> <PDB ID(s) of Target Chain>
2XB7,2XBA,3AOX,5FTO,5FTQ,6E0R,6EBW,6EDL,6MX8

> <UniProt (SwissProt) Recommended Name of Target Chain>
ALK tyrosine kinase receptor

> <UniProt (SwissProt) Entry Name of Target Chain>
ALK_HUMAN

> <UniProt (SwissProt) Primary ID of Target Chain>
Q9UM73

> <UniProt (SwissProt) Secondary ID(s) of Target Chain>
Q4ZFX9,Q53QQ6,Q53RZ4,Q59FI3,Q9Y4K6

> <UniProt (SwissProt) Alternative ID(s) of Target Chain>


> <UniProt (TrEMBL) Submitted Name of Target Chain>


> <UniProt (TrEMBL) Entry Name of Target Chain>


> <UniProt (TrEMBL) Primary ID of Target Chain>


> <UniProt (TrEMBL) Secondary ID(s) of Target Chain>


> <UniProt (TrEMBL) Alternative ID(s) of Target Chain>


$$$$
00194001.cdx
  Mrv0541 02211919242D          

 35 37  0  0  0  0            999 V2000
   -2.1826    0.0854    0.0000 C   0  0  0  0  0  0  0  0  0  0  0  0
   -2.8971   -0.3271    0.0000 C   0  0  0  0  0  0  0  0  0  0  0  0
   -2.8971   -1.1521    0.0000 C   0  0  0  0  0  0  0  0  0  0  0  0
   -2.1826   -1.5646    0.0000 N   0  0  0  0  0  0  0  0  0  0  0  0
   -1.4681   -1.1521    0.0000 C   0  0  0  0  0  0  0  0  0  0  0  0
   -1.4681   -0.3271    0.0000 N   0  0  0  0  0  0  0  0  0  0  0  0
   -3.6116    0.0854    0.0000 Cl  0  0  0  0  0  0  0  0  0  0  0  0
   -0.7537   -1.5646    0.0000 N   0  0  0  0  0  0  0  0  0  0  0  0
   -1.4681    2.1479    0.0000 C   0  0  0  0  0  0  0  0  0  0  0  0
   -1.4681    1.3229    0.0000 C   0  0  0  0  0  0  0  0  0  0  0  0
   -0.7537    0.9104    0.0000 C   0  0  0  0  0  0  0  0  0  0  0  0
   -0.0392    1.3229    0.0000 C   0  0  0  0  0  0  0  0  0  0  0  0
   -0.0392    2.1479    0.0000 C   0  0  0  0  0  0  0  0  0  0  0  0
   -0.7537    2.5604    0.0000 C   0  0  0  0  0  0  0  0  0  0  0  0
   -2.1826    2.5604    0.0000 S   0  0  0  0  0  0  0  0  0  0  0  0
   -2.8971    2.1479    0.0000 C   0  0  0  0  0  0  0  0  0  0  0  0
   -2.1826    0.9104    0.0000 N   0  0  0  0  0  0  0  0  0  0  0  0
   -0.0392   -1.1521    0.0000 C   0  0  0  0  0  0  0  0  0  0  0  0
   -0.0392   -0.3271    0.0000 C   0  0  0  0  0  0  0  0  0  0  0  0
    0.6753   -1.5646    0.0000 C   0  0  0  0  0  0  0  0  0  0  0  0
    1.3897   -1.1521    0.0000 C   0  0  0  0  0  0  0  0  0  0  0  0
    1.3897   -0.3271    0.0000 C   0  0  0  0  0  0  0  0  0  0  0  0
    0.6753    0.0854    0.0000 C   0  0  0  0  0  0  0  0  0  0  0  0
    0.6753    0.9104    0.0000 C   0  0  0  0  0  0  0  0  0  0  0  0
    0.6753   -2.3896    0.0000 O   0  0  0  0  0  0  0  0  0  0  0  0
    1.2586   -2.9729    0.0000 C   0  0  0  0  0  0  0  0  0  0  0  0
    2.1042    0.0854    0.0000 C   0  0  0  0  0  0  0  0  0  0  0  0
   -3.6116    2.5604    0.0000 C   0  0  0  0  0  0  0  0  0  0  0  0
   -2.8971    1.3229    0.0000 C   0  0  0  0  0  0  0  0  0  0  0  0
   -2.8971    2.9729    0.0000 O   0  0  0  0  0  0  0  0  0  0  0  0
   -1.4681    2.9729    0.0000 O   0  0  0  0  0  0  0  0  0  0  0  0
    2.1904    0.9059    0.0000 C   0  0  0  0  0  0  0  0  0  0  0  0
    2.9441    1.2415    0.0000 N   0  0  0  0  0  0  0  0  0  0  0  0
    2.7306    2.0384    0.0000 C   0  0  0  0  0  0  0  0  0  0  0  0
    3.6116    0.7565    0.0000 C   0  0  0  0  0  0  0  0  0  0  0  0
 17  1  1  0  0  0  0
  1  2  4  0  0  0  0
  2  3  4  0  0  0  0
  3  4  4  0  0  0  0
  4  5  4  0  0  0  0
  5  6  4  0  0  0  0
  6  1  4  0  0  0  0
  2  7  1  0  0  0  0
  5  8  1  0  0  0  0
  9 10  4  0  0  0  0
 10 11  4  0  0  0  0
 11 12  4  0  0  0  0
 12 13  4  0  0  0  0
 13 14  4  0  0  0  0
 14  9  4  0  0  0  0
  9 15  1  0  0  0  0
 15 16  1  0  0  0  0
 10 17  1  0  0  0  0
  8 18  1  0  0  0  0
 18 19  4  0  0  0  0
 18 20  4  0  0  0  0
 20 21  4  0  0  0  0
 21 22  4  0  0  0  0
 22 23  4  0  0  0  0
 23 19  4  0  0  0  0
 23 24  1  0  0  0  0
 20 25  1  0  0  0  0
 25 26  1  0  0  0  0
 22 27  1  0  0  0  0
 16 28  1  0  0  0  0
 16 29  1  0  0  0  0
 15 30  2  0  0  0  0
 15 31  2  0  0  0  0
 32 27  1  0  0  0  0
 32 33  1  0  0  0  0
 33 34  1  0  0  0  0
 33 35  1  0  0  0  0
M  END
> <From>
www.bindingDB.org

> <BindingDB Reactant_set_id>
556966

> <Ligand InChI>
InChI=1S/C25H32ClN5O3S/c1-16(2)35(32,33)23-10-8-7-9-20(23)28-24-19(26)15-27-25(30-24)29-21-13-17(3)18(11-12-31(4)5)14-22(21)34-6/h7-10,13-16H,11-12H2,1-6H3,(H2,27,28,29,30)

> <Ligand InChI Key>
NVHYFDRMQSUXBA-UHFFFAOYSA-N

> <BindingDB MonomerID>
291988

> <BindingDB Ligand Name>
US10100019, Example 58

> <Target Name Assigned by Curator or DataSource>
ALK tyrosine kinase receptor

> <Target Source Organism According to Curator or DataSource>
Homo sapiens

> <Ki (nM)>


> <IC50 (nM)>
 1.40

> <Kd (nM)>


> <EC50 (nM)>


> <kon (M-1-s-1)>


> <koff (s-1)>


> <pH>


> <Temp C>
25.00

> <Curation/DataSource>
US Patent

> <Article DOI>
10.1016/j.bmcl.2006.04.076

> <PMID>


> <PubChem AID>


> <Patent Number>
US10100019

> <Authors>
Kim, P; Kim, HR; Cho, SY; Ha, JD; Jung, HJ; Yun, CS; Hwang, JY; Park, CH; Lee, CO; Ahn, S; Chae, CH

> <Institution>
Korea Research Institute of Chemical Technology

> <Link to Ligand in BindingDB>
http://www.bindingdb.org/bind/chemsearch/marvin/MolStructure.jsp?monomerid=291988

> <Link to Ligand-Target Pair in BindingDB>
http://www.bindingdb.org/jsp/dbsearch/PrimarySearch_ki.jsp?energyterm=kJ/mole&tag=pol&polymerid=5809&target=ALK+tyrosine+kinase+receptor&column=ki&startPg=0&Increment=50&submit=Search

> <Link to Ligand-Target Pair in BindingDB>
http://www.bindingdb.org/jsp/dbsearch/PrimarySearch_ki.jsp?energyterm=kJ/mole&tag=r21&monomerid=291988&enzyme=ALK+tyrosine+kinase+receptor&column=ki&startPg=0&Increment=50&submit=Search

> <Ligand HET ID in PDB>


> <PDB ID(s) for Ligand-Target Complex>


> <PubChem CID>
134449970

> <PubChem SID>
381612287

> <ChEBI ID of Ligand>


> <ChEMBL ID of Ligand>


> <DrugBank ID of Ligand>


> <IUPHAR_GRAC ID of Ligand>


> <KEGG ID of Ligand>


> <ZINC ID of Ligand>


> <Number of Protein Chains in Target (>1 implies a multichain complex)>
1

> <BindingDB Target Chain Sequence>
MGAIGLLWLLPLLLSTAAVGSGMGTGQRAGSPAAGPPLQPREPLSYSRLQRKSLAVDFVVPSLFRVYARDLLLPPSSSELKAGRPEARGSLALDCAPLLRLLGPAPGVSWTAGSPAPAEARTLSRVLKGGSVRKLRRAKQLVLELGEEAILEGCVGPPGEAAVGLLQFNLSELFSWWIRQGEGRLRIRLMPEKKASEVGREGRLSAAIRASQPRLLFQIFGTGHSSLESPTNMPSPSPDYFTWNLTWIMKDSFPFLSHRSRYGLECSFDFPCELEYSPPLHDLRNQSWSWRRIPSEEASQMDLLDGPGAERSKEMPRGSFLLLNTSADSKHTILSPWMRSSSEHCTLAVSVHRHLQPSGRYIAQLLPHNEAAREILLMPTPGKHGWTVLQGRIGRPDNPFRVALEYISSGNRSLSAVDFFALKNCSEGTSPGSKMALQSSFTCWNGTVLQLGQACDFHQDCAQGEDESQMCRKLPVGFYCNFEDGFCGWTQGTLSPHTPQWQVRTLKDARFQDHQDHALLLSTTDVPASESATVTSATFPAPIKSSPCELRMSWLIRGVLRGNVSLVLVENKTGKEQGRMVWHVAAYEGLSLWQWMVLPLLDVSDRFWLQMVAWWGQGSRAIVAFDNISISLDCYLTISGEDKILQNTAPKSRNLFERNPNKELKPGENSPRQTPIFDPTVHWLFTTCGASGPHGPTQAQCNNAYQNSNLSVEVGSEGPLKGIQIWKVPATDTYSISGYGAAGGKGGKNTMMRSHGVSVLGIFNLEKDDMLYILVGQQGEDACPSTNQLIQKVCIGENNVIEEEIRVNRSVHEWAGGGGGGGGATYVFKMKDGVPVPLIIAAGGGGRAYGAKTDTFHPERLENNSSVLGLNGNSGAAGGGGGWNDNTSLLWAGKSLQEGATGGHSCPQAMKKWGWETRGGFGGGGGGCSSGGGGGGYIGGNAASNNDPEMDGEDGVSFISPLGILYTPALKVMEGHGEVNIKHYLNCSHCEVDECHMDPESHKVICFCDHGTVLAEDGVSCIVSPTPEPHLPLSLILSVVTSALVAALVLAFSGIMIVYRRKHQELQAMQMELQSPEYKLSKLRTSTIMTDYNPNYCFAGKTSSISDLKEVPRKNITLIRGLGHGAFGEVYEGQVSGMPNDPSPLQVAVKTLPEVCSEQDELDFLMEALIISKFNHQNIVRCIGVSLQSLPRFILLELMAGGDLKSFLRETRPRPSQPSSLAMLDLLHVARDIACGCQYLEENHFIHRDIAARNCLLTCPGPGRVAKIGDFGMARDIYRASYYRKGGCAMLPVKWMPPEAFMEGIFTSKTDTWSFGVLLWEIFSLGYMPYPSKSNQEVLEFVTSGGRMDPPKNCPGPVYRIMTQCWQHQPEDRPNFAIILERIEYCTQDPDVINTALPIEYGPLVEEEEKVPVRPKDPEGVPPLLVSQQAKREEERSPAAPPPLPTTSSGKAAKKPTAAEISVRVPRGPAVEGGHVNMAFSQSNPPSELHKVHGSRNKPTSLWNPTYGSWFTEKPTKKNNPIAKKEPHDRGNLGLEGSCTVPPNVATGRLPGASLLLEPSSLTANMKEVPLFRLRHFPCGNVNYGYQQQGLPLEAATAPGAGHYEDTILKSKNSMNQPGP

> <PDB ID(s) of Target Chain>
2XB7,2XBA,3AOX,5FTO,5FTQ,6E0R,6EBW,6EDL,6MX8

> <UniProt (SwissProt) Recommended Name of Target Chain>
ALK tyrosine kinase receptor

> <UniProt (SwissProt) Entry Name of Target Chain>
ALK_HUMAN

> <UniProt (SwissProt) Primary ID of Target Chain>
Q9UM73

> <UniProt (SwissProt) Secondary ID(s) of Target Chain>
Q4ZFX9,Q53QQ6,Q53RZ4,Q59FI3,Q9Y4K6

> <UniProt (SwissProt) Alternative ID(s) of Target Chain>


> <UniProt (TrEMBL) Submitted Name of Target Chain>


> <UniProt (TrEMBL) Entry Name of Target Chain>


> <UniProt (TrEMBL) Primary ID of Target Chain>


> <UniProt (TrEMBL) Secondary ID(s) of Target Chain>


> <UniProt (TrEMBL) Alternative ID(s) of Target Chain>


$$$$
00189001.cdx
  Mrv0541 02211919242D          

 37 39  0  0  0  0            999 V2000
   -2.1434    0.0854    0.0000 C   0  0  0  0  0  0  0  0  0  0  0  0
   -2.8579   -0.3271    0.0000 C   0  0  0  0  0  0  0  0  0  0  0  0
   -2.8579   -1.1521    0.0000 C   0  0  0  0  0  0  0  0  0  0  0  0
   -2.1434   -1.5646    0.0000 N   0  0  0  0  0  0  0  0  0  0  0  0
   -1.4289   -1.1521    0.0000 C   0  0  0  0  0  0  0  0  0  0  0  0
   -1.4289   -0.3271    0.0000 N   0  0  0  0  0  0  0  0  0  0  0  0
   -3.5724    0.0854    0.0000 Cl  0  0  0  0  0  0  0  0  0  0  0  0
   -0.7145   -1.5646    0.0000 N   0  0  0  0  0  0  0  0  0  0  0  0
   -1.4289    2.1479    0.0000 C   0  0  0  0  0  0  0  0  0  0  0  0
   -1.4289    1.3229    0.0000 C   0  0  0  0  0  0  0  0  0  0  0  0
   -0.7145    0.9104    0.0000 C   0  0  0  0  0  0  0  0  0  0  0  0
    0.0000    1.3229    0.0000 C   0  0  0  0  0  0  0  0  0  0  0  0
    0.0000    2.1479    0.0000 C   0  0  0  0  0  0  0  0  0  0  0  0
   -0.7145    2.5604    0.0000 C   0  0  0  0  0  0  0  0  0  0  0  0
   -2.1434    2.5604    0.0000 S   0  0  0  0  0  0  0  0  0  0  0  0
   -2.8579    2.1479    0.0000 C   0  0  0  0  0  0  0  0  0  0  0  0
   -2.1434    0.9104    0.0000 N   0  0  0  0  0  0  0  0  0  0  0  0
    0.0000   -1.1521    0.0000 C   0  0  0  0  0  0  0  0  0  0  0  0
    0.0000   -0.3271    0.0000 C   0  0  0  0  0  0  0  0  0  0  0  0
    0.7145   -1.5646    0.0000 C   0  0  0  0  0  0  0  0  0  0  0  0
    1.4289   -1.1521    0.0000 C   0  0  0  0  0  0  0  0  0  0  0  0
    1.4289   -0.3271    0.0000 C   0  0  0  0  0  0  0  0  0  0  0  0
    0.7145    0.0854    0.0000 C   0  0  0  0  0  0  0  0  0  0  0  0
    0.7145    0.9104    0.0000 C   0  0  0  0  0  0  0  0  0  0  0  0
    0.7145   -2.3896    0.0000 O   0  0  0  0  0  0  0  0  0  0  0  0
    1.2978   -2.9729    0.0000 C   0  0  0  0  0  0  0  0  0  0  0  0
    2.1434    0.0854    0.0000 C   0  0  0  0  0  0  0  0  0  0  0  0
   -3.5724    2.5604    0.0000 C   0  0  0  0  0  0  0  0  0  0  0  0
   -2.8579    1.3229    0.0000 C   0  0  0  0  0  0  0  0  0  0  0  0
   -2.8579    2.9729    0.0000 O   0  0  0  0  0  0  0  0  0  0  0  0
   -1.4289    2.9729    0.0000 O   0  0  0  0  0  0  0  0  0  0  0  0
    2.1434    0.9104    0.0000 C   0  0  0  0  0  0  0  0  0  0  0  0
    2.5559   -0.6290    0.0000 C   0  0  0  0  0  0  0  0  0  0  0  0
    2.9403    0.2990    0.0000 C   0  0  0  0  0  0  0  0  0  0  0  0
    2.8579    1.3229    0.0000 N   0  0  0  0  0  0  0  0  0  0  0  0
    2.8579    2.1479    0.0000 C   0  0  0  0  0  0  0  0  0  0  0  0
    2.1434    2.5604    0.0000 O   0  0  0  0  0  0  0  0  0  0  0  0
 17  1  1  0  0  0  0
  1  2  4  0  0  0  0
  2  3  4  0  0  0  0
  3  4  4  0  0  0  0
  4  5  4  0  0  0  0
  5  6  4  0  0  0  0
  6  1  4  0  0  0  0
  2  7  1  0  0  0  0
  5  8  1  0  0  0  0
  9 10  4  0  0  0  0
 10 11  4  0  0  0  0
 11 12  4  0  0  0  0
 12 13  4  0  0  0  0
 13 14  4  0  0  0  0
 14  9  4  0  0  0  0
  9 15  1  0  0  0  0
 15 16  1  0  0  0  0
 10 17  1  0  0  0  0
  8 18  1  0  0  0  0
 18 19  4  0  0  0  0
 18 20  4  0  0  0  0
 20 21  4  0  0  0  0
 21 22  4  0  0  0  0
 22 23  4  0  0  0  0
 23 19  4  0  0  0  0
 23 24  1  0  0  0  0
 20 25  1  0  0  0  0
 25 26  1  0  0  0  0
 22 27  1  0  0  0  0
 16 28  1  0  0  0  0
 16 29  1  0  0  0  0
 15 30  2  0  0  0  0
 15 31  2  0  0  0  0
 27 32  1  0  0  0  0
 27 33  1  0  0  0  0
 27 34  1  0  0  0  0
 32 35  1  0  0  0  0
 35 36  1  0  0  0  0
 36 37  2  0  0  0  0
M  END
> <From>
www.bindingDB.org

> <BindingDB Reactant_set_id>
556967

> <Ligand InChI>
InChI=1S/C26H32ClN5O4S/c1-16(2)37(34,35)23-10-8-7-9-20(23)30-24-19(27)13-29-25(32-24)31-21-11-17(3)18(12-22(21)36-6)26(4,5)14-28-15-33/h7-13,15-16H,14H2,1-6H3,(H,28,33)(H2,29,30,31,32)

> <Ligand InChI Key>
YQXBTLYMIWQFAN-UHFFFAOYSA-N

> <BindingDB MonomerID>
291989

> <BindingDB Ligand Name>
US10100019, Example 59

> <Target Name Assigned by Curator or DataSource>
ALK tyrosine kinase receptor

> <Target Source Organism According to Curator or DataSource>
Homo sapiens

> <Ki (nM)>


> <IC50 (nM)>
 7.80

> <Kd (nM)>


> <EC50 (nM)>


> <kon (M-1-s-1)>


> <koff (s-1)>


> <pH>


> <Temp C>
25.00

> <Curation/DataSource>
US Patent

> <Article DOI>
10.1016/j.bmcl.2006.04.076

> <PMID>


> <PubChem AID>


> <Patent Number>
US10100019

> <Authors>
Kim, P; Kim, HR; Cho, SY; Ha, JD; Jung, HJ; Yun, CS; Hwang, JY; Park, CH; Lee, CO; Ahn, S; Chae, CH

> <Institution>
Korea Research Institute of Chemical Technology

> <Link to Ligand in BindingDB>
http://www.bindingdb.org/bind/chemsearch/marvin/MolStructure.jsp?monomerid=291989

> <Link to Ligand-Target Pair in BindingDB>
http://www.bindingdb.org/jsp/dbsearch/PrimarySearch_ki.jsp?energyterm=kJ/mole&tag=pol&polymerid=5809&target=ALK+tyrosine+kinase+receptor&column=ki&startPg=0&Increment=50&submit=Search

> <Link to Ligand-Target Pair in BindingDB>
http://www.bindingdb.org/jsp/dbsearch/PrimarySearch_ki.jsp?energyterm=kJ/mole&tag=r21&monomerid=291989&enzyme=ALK+tyrosine+kinase+receptor&column=ki&startPg=0&Increment=50&submit=Search

> <Ligand HET ID in PDB>


> <PDB ID(s) for Ligand-Target Complex>


> <PubChem CID>
134449968

> <PubChem SID>
381612288

> <ChEBI ID of Ligand>


> <ChEMBL ID of Ligand>


> <DrugBank ID of Ligand>


> <IUPHAR_GRAC ID of Ligand>


> <KEGG ID of Ligand>
C06049

> <ZINC ID of Ligand>


> <Number of Protein Chains in Target (>1 implies a multichain complex)>
1

> <BindingDB Target Chain Sequence>
MGAIGLLWLLPLLLSTAAVGSGMGTGQRAGSPAAGPPLQPREPLSYSRLQRKSLAVDFVVPSLFRVYARDLLLPPSSSELKAGRPEARGSLALDCAPLLRLLGPAPGVSWTAGSPAPAEARTLSRVLKGGSVRKLRRAKQLVLELGEEAILEGCVGPPGEAAVGLLQFNLSELFSWWIRQGEGRLRIRLMPEKKASEVGREGRLSAAIRASQPRLLFQIFGTGHSSLESPTNMPSPSPDYFTWNLTWIMKDSFPFLSHRSRYGLECSFDFPCELEYSPPLHDLRNQSWSWRRIPSEEASQMDLLDGPGAERSKEMPRGSFLLLNTSADSKHTILSPWMRSSSEHCTLAVSVHRHLQPSGRYIAQLLPHNEAAREILLMPTPGKHGWTVLQGRIGRPDNPFRVALEYISSGNRSLSAVDFFALKNCSEGTSPGSKMALQSSFTCWNGTVLQLGQACDFHQDCAQGEDESQMCRKLPVGFYCNFEDGFCGWTQGTLSPHTPQWQVRTLKDARFQDHQDHALLLSTTDVPASESATVTSATFPAPIKSSPCELRMSWLIRGVLRGNVSLVLVENKTGKEQGRMVWHVAAYEGLSLWQWMVLPLLDVSDRFWLQMVAWWGQGSRAIVAFDNISISLDCYLTISGEDKILQNTAPKSRNLFERNPNKELKPGENSPRQTPIFDPTVHWLFTTCGASGPHGPTQAQCNNAYQNSNLSVEVGSEGPLKGIQIWKVPATDTYSISGYGAAGGKGGKNTMMRSHGVSVLGIFNLEKDDMLYILVGQQGEDACPSTNQLIQKVCIGENNVIEEEIRVNRSVHEWAGGGGGGGGATYVFKMKDGVPVPLIIAAGGGGRAYGAKTDTFHPERLENNSSVLGLNGNSGAAGGGGGWNDNTSLLWAGKSLQEGATGGHSCPQAMKKWGWETRGGFGGGGGGCSSGGGGGGYIGGNAASNNDPEMDGEDGVSFISPLGILYTPALKVMEGHGEVNIKHYLNCSHCEVDECHMDPESHKVICFCDHGTVLAEDGVSCIVSPTPEPHLPLSLILSVVTSALVAALVLAFSGIMIVYRRKHQELQAMQMELQSPEYKLSKLRTSTIMTDYNPNYCFAGKTSSISDLKEVPRKNITLIRGLGHGAFGEVYEGQVSGMPNDPSPLQVAVKTLPEVCSEQDELDFLMEALIISKFNHQNIVRCIGVSLQSLPRFILLELMAGGDLKSFLRETRPRPSQPSSLAMLDLLHVARDIACGCQYLEENHFIHRDIAARNCLLTCPGPGRVAKIGDFGMARDIYRASYYRKGGCAMLPVKWMPPEAFMEGIFTSKTDTWSFGVLLWEIFSLGYMPYPSKSNQEVLEFVTSGGRMDPPKNCPGPVYRIMTQCWQHQPEDRPNFAIILERIEYCTQDPDVINTALPIEYGPLVEEEEKVPVRPKDPEGVPPLLVSQQAKREEERSPAAPPPLPTTSSGKAAKKPTAAEISVRVPRGPAVEGGHVNMAFSQSNPPSELHKVHGSRNKPTSLWNPTYGSWFTEKPTKKNNPIAKKEPHDRGNLGLEGSCTVPPNVATGRLPGASLLLEPSSLTANMKEVPLFRLRHFPCGNVNYGYQQQGLPLEAATAPGAGHYEDTILKSKNSMNQPGP

> <PDB ID(s) of Target Chain>
2XB7,2XBA,3AOX,5FTO,5FTQ,6E0R,6EBW,6EDL,6MX8

> <UniProt (SwissProt) Recommended Name of Target Chain>
ALK tyrosine kinase receptor

> <UniProt (SwissProt) Entry Name of Target Chain>
ALK_HUMAN

> <UniProt (SwissProt) Primary ID of Target Chain>
Q9UM73

> <UniProt (SwissProt) Secondary ID(s) of Target Chain>
Q4ZFX9,Q53QQ6,Q53RZ4,Q59FI3,Q9Y4K6

> <UniProt (SwissProt) Alternative ID(s) of Target Chain>


> <UniProt (TrEMBL) Submitted Name of Target Chain>


> <UniProt (TrEMBL) Entry Name of Target Chain>


> <UniProt (TrEMBL) Primary ID of Target Chain>


> <UniProt (TrEMBL) Secondary ID(s) of Target Chain>


> <UniProt (TrEMBL) Alternative ID(s) of Target Chain>


$$$$
00195001.cdx
  Mrv0541 02211919242D          

 36 38  0  0  0  0            999 V2000
   -1.8274    0.0854    0.0000 C   0  0  0  0  0  0  0  0  0  0  0  0
   -2.5419   -0.3271    0.0000 C   0  0  0  0  0  0  0  0  0  0  0  0
   -2.5419   -1.1521    0.0000 C   0  0  0  0  0  0  0  0  0  0  0  0
   -1.8274   -1.5646    0.0000 N   0  0  0  0  0  0  0  0  0  0  0  0
   -1.1129   -1.1521    0.0000 C   0  0  0  0  0  0  0  0  0  0  0  0
   -1.1129   -0.3271    0.0000 N   0  0  0  0  0  0  0  0  0  0  0  0
   -3.2563    0.0854    0.0000 Cl  0  0  0  0  0  0  0  0  0  0  0  0
   -0.3984   -1.5646    0.0000 N   0  0  0  0  0  0  0  0  0  0  0  0
   -1.1129    2.1479    0.0000 C   0  0  0  0  0  0  0  0  0  0  0  0
   -1.1129    1.3229    0.0000 C   0  0  0  0  0  0  0  0  0  0  0  0
   -0.3984    0.9104    0.0000 C   0  0  0  0  0  0  0  0  0  0  0  0
    0.3160    1.3229    0.0000 C   0  0  0  0  0  0  0  0  0  0  0  0
    0.3160    2.1479    0.0000 C   0  0  0  0  0  0  0  0  0  0  0  0
   -0.3984    2.5604    0.0000 C   0  0  0  0  0  0  0  0  0  0  0  0
   -1.8274    2.5604    0.0000 S   0  0  0  0  0  0  0  0  0  0  0  0
   -2.5419    2.1479    0.0000 C   0  0  0  0  0  0  0  0  0  0  0  0
   -1.8274    0.9104    0.0000 N   0  0  0  0  0  0  0  0  0  0  0  0
    0.3160   -1.1521    0.0000 C   0  0  0  0  0  0  0  0  0  0  0  0
    0.3160   -0.3271    0.0000 C   0  0  0  0  0  0  0  0  0  0  0  0
    1.0305   -1.5646    0.0000 C   0  0  0  0  0  0  0  0  0  0  0  0
    1.7450   -1.1521    0.0000 C   0  0  0  0  0  0  0  0  0  0  0  0
    1.7450   -0.3271    0.0000 C   0  0  0  0  0  0  0  0  0  0  0  0
    1.0305    0.0854    0.0000 C   0  0  0  0  0  0  0  0  0  0  0  0
    1.0305    0.9104    0.0000 C   0  0  0  0  0  0  0  0  0  0  0  0
    1.0305   -2.3896    0.0000 O   0  0  0  0  0  0  0  0  0  0  0  0
    1.6139   -2.9729    0.0000 C   0  0  0  0  0  0  0  0  0  0  0  0
    2.4594    0.0854    0.0000 C   0  0  0  0  0  0  0  0  0  0  0  0
   -3.2563    2.5604    0.0000 C   0  0  0  0  0  0  0  0  0  0  0  0
   -2.5419    1.3229    0.0000 C   0  0  0  0  0  0  0  0  0  0  0  0
   -2.5419    2.9729    0.0000 O   0  0  0  0  0  0  0  0  0  0  0  0
   -1.1129    2.9729    0.0000 O   0  0  0  0  0  0  0  0  0  0  0  0
    2.4594    0.9104    0.0000 C   0  0  0  0  0  0  0  0  0  0  0  0
    3.1739    1.3229    0.0000 N   0  0  0  0  0  0  0  0  0  0  0  0
    3.1739    2.1479    0.0000 C   0  0  0  0  0  0  0  0  0  0  0  0
    3.2563    0.2990    0.0000 C   0  0  0  0  0  0  0  0  0  0  0  0
    2.8719   -0.6290    0.0000 C   0  0  0  0  0  0  0  0  0  0  0  0
 17  1  1  0  0  0  0
  1  2  4  0  0  0  0
  2  3  4  0  0  0  0
  3  4  4  0  0  0  0
  4  5  4  0  0  0  0
  5  6  4  0  0  0  0
  6  1  4  0  0  0  0
  2  7  1  0  0  0  0
  5  8  1  0  0  0  0
  9 10  4  0  0  0  0
 10 11  4  0  0  0  0
 11 12  4  0  0  0  0
 12 13  4  0  0  0  0
 13 14  4  0  0  0  0
 14  9  4  0  0  0  0
  9 15  1  0  0  0  0
 15 16  1  0  0  0  0
 10 17  1  0  0  0  0
  8 18  1  0  0  0  0
 18 19  4  0  0  0  0
 18 20  4  0  0  0  0
 20 21  4  0  0  0  0
 21 22  4  0  0  0  0
 22 23  4  0  0  0  0
 23 19  4  0  0  0  0
 23 24  1  0  0  0  0
 20 25  1  0  0  0  0
 25 26  1  0  0  0  0
 22 27  1  0  0  0  0
 16 28  1  0  0  0  0
 16 29  1  0  0  0  0
 15 30  2  0  0  0  0
 15 31  2  0  0  0  0
 27 32  1  0  0  0  0
 32 33  1  0  0  0  0
 33 34  1  0  0  0  0
 27 35  1  0  0  0  0
 27 36  1  0  0  0  0
M  END
> <From>
www.bindingDB.org

> <BindingDB Reactant_set_id>
556968

> <Ligand InChI>
InChI=1S/C26H34ClN5O3S/c1-16(2)36(33,34)23-11-9-8-10-20(23)30-24-19(27)14-29-25(32-24)31-21-12-17(3)18(13-22(21)35-7)26(4,5)15-28-6/h8-14,16,28H,15H2,1-7H3,(H2,29,30,31,32)

> <Ligand InChI Key>
BYWPPTHPCWUJSH-UHFFFAOYSA-N

> <BindingDB MonomerID>
291990

> <BindingDB Ligand Name>
US10100019, Example 60

> <Target Name Assigned by Curator or DataSource>
ALK tyrosine kinase receptor

> <Target Source Organism According to Curator or DataSource>
Homo sapiens

> <Ki (nM)>


> <IC50 (nM)>
 1.50

> <Kd (nM)>


> <EC50 (nM)>


> <kon (M-1-s-1)>


> <koff (s-1)>


> <pH>


> <Temp C>
25.00

> <Curation/DataSource>
US Patent

> <Article DOI>
10.1016/j.bmcl.2006.04.076

> <PMID>


> <PubChem AID>


> <Patent Number>
US10100019

> <Authors>
Kim, P; Kim, HR; Cho, SY; Ha, JD; Jung, HJ; Yun, CS; Hwang, JY; Park, CH; Lee, CO; Ahn, S; Chae, CH

> <Institution>
Korea Research Institute of Chemical Technology

> <Link to Ligand in BindingDB>
http://www.bindingdb.org/bind/chemsearch/marvin/MolStructure.jsp?monomerid=291990

> <Link to Ligand-Target Pair in BindingDB>
http://www.bindingdb.org/jsp/dbsearch/PrimarySearch_ki.jsp?energyterm=kJ/mole&tag=pol&polymerid=5809&target=ALK+tyrosine+kinase+receptor&column=ki&startPg=0&Increment=50&submit=Search

> <Link to Ligand-Target Pair in BindingDB>
http://www.bindingdb.org/jsp/dbsearch/PrimarySearch_ki.jsp?energyterm=kJ/mole&tag=r21&monomerid=291990&enzyme=ALK+tyrosine+kinase+receptor&column=ki&startPg=0&Increment=50&submit=Search

> <Ligand HET ID in PDB>


> <PDB ID(s) for Ligand-Target Complex>


> <PubChem CID>
134449972

> <PubChem SID>
381612289

> <ChEBI ID of Ligand>


> <ChEMBL ID of Ligand>


> <DrugBank ID of Ligand>


> <IUPHAR_GRAC ID of Ligand>


> <KEGG ID of Ligand>


> <ZINC ID of Ligand>


> <Number of Protein Chains in Target (>1 implies a multichain complex)>
1

> <BindingDB Target Chain Sequence>
MGAIGLLWLLPLLLSTAAVGSGMGTGQRAGSPAAGPPLQPREPLSYSRLQRKSLAVDFVVPSLFRVYARDLLLPPSSSELKAGRPEARGSLALDCAPLLRLLGPAPGVSWTAGSPAPAEARTLSRVLKGGSVRKLRRAKQLVLELGEEAILEGCVGPPGEAAVGLLQFNLSELFSWWIRQGEGRLRIRLMPEKKASEVGREGRLSAAIRASQPRLLFQIFGTGHSSLESPTNMPSPSPDYFTWNLTWIMKDSFPFLSHRSRYGLECSFDFPCELEYSPPLHDLRNQSWSWRRIPSEEASQMDLLDGPGAERSKEMPRGSFLLLNTSADSKHTILSPWMRSSSEHCTLAVSVHRHLQPSGRYIAQLLPHNEAAREILLMPTPGKHGWTVLQGRIGRPDNPFRVALEYISSGNRSLSAVDFFALKNCSEGTSPGSKMALQSSFTCWNGTVLQLGQACDFHQDCAQGEDESQMCRKLPVGFYCNFEDGFCGWTQGTLSPHTPQWQVRTLKDARFQDHQDHALLLSTTDVPASESATVTSATFPAPIKSSPCELRMSWLIRGVLRGNVSLVLVENKTGKEQGRMVWHVAAYEGLSLWQWMVLPLLDVSDRFWLQMVAWWGQGSRAIVAFDNISISLDCYLTISGEDKILQNTAPKSRNLFERNPNKELKPGENSPRQTPIFDPTVHWLFTTCGASGPHGPTQAQCNNAYQNSNLSVEVGSEGPLKGIQIWKVPATDTYSISGYGAAGGKGGKNTMMRSHGVSVLGIFNLEKDDMLYILVGQQGEDACPSTNQLIQKVCIGENNVIEEEIRVNRSVHEWAGGGGGGGGATYVFKMKDGVPVPLIIAAGGGGRAYGAKTDTFHPERLENNSSVLGLNGNSGAAGGGGGWNDNTSLLWAGKSLQEGATGGHSCPQAMKKWGWETRGGFGGGGGGCSSGGGGGGYIGGNAASNNDPEMDGEDGVSFISPLGILYTPALKVMEGHGEVNIKHYLNCSHCEVDECHMDPESHKVICFCDHGTVLAEDGVSCIVSPTPEPHLPLSLILSVVTSALVAALVLAFSGIMIVYRRKHQELQAMQMELQSPEYKLSKLRTSTIMTDYNPNYCFAGKTSSISDLKEVPRKNITLIRGLGHGAFGEVYEGQVSGMPNDPSPLQVAVKTLPEVCSEQDELDFLMEALIISKFNHQNIVRCIGVSLQSLPRFILLELMAGGDLKSFLRETRPRPSQPSSLAMLDLLHVARDIACGCQYLEENHFIHRDIAARNCLLTCPGPGRVAKIGDFGMARDIYRASYYRKGGCAMLPVKWMPPEAFMEGIFTSKTDTWSFGVLLWEIFSLGYMPYPSKSNQEVLEFVTSGGRMDPPKNCPGPVYRIMTQCWQHQPEDRPNFAIILERIEYCTQDPDVINTALPIEYGPLVEEEEKVPVRPKDPEGVPPLLVSQQAKREEERSPAAPPPLPTTSSGKAAKKPTAAEISVRVPRGPAVEGGHVNMAFSQSNPPSELHKVHGSRNKPTSLWNPTYGSWFTEKPTKKNNPIAKKEPHDRGNLGLEGSCTVPPNVATGRLPGASLLLEPSSLTANMKEVPLFRLRHFPCGNVNYGYQQQGLPLEAATAPGAGHYEDTILKSKNSMNQPGP

> <PDB ID(s) of Target Chain>
2XB7,2XBA,3AOX,5FTO,5FTQ,6E0R,6EBW,6EDL,6MX8

> <UniProt (SwissProt) Recommended Name of Target Chain>
ALK tyrosine kinase receptor

> <UniProt (SwissProt) Entry Name of Target Chain>
ALK_HUMAN

> <UniProt (SwissProt) Primary ID of Target Chain>
Q9UM73

> <UniProt (SwissProt) Secondary ID(s) of Target Chain>
Q4ZFX9,Q53QQ6,Q53RZ4,Q59FI3,Q9Y4K6

> <UniProt (SwissProt) Alternative ID(s) of Target Chain>


> <UniProt (TrEMBL) Submitted Name of Target Chain>


> <UniProt (TrEMBL) Entry Name of Target Chain>


> <UniProt (TrEMBL) Primary ID of Target Chain>


> <UniProt (TrEMBL) Secondary ID(s) of Target Chain>


> <UniProt (TrEMBL) Alternative ID(s) of Target Chain>


$$$$
00190001.cdx
  Mrv0541 02211919242D          

 36 38  0  0  0  0            999 V2000
   -2.1434    0.0854    0.0000 C   0  0  0  0  0  0  0  0  0  0  0  0
   -2.8579   -0.3271    0.0000 C   0  0  0  0  0  0  0  0  0  0  0  0
   -2.8579   -1.1521    0.0000 C   0  0  0  0  0  0  0  0  0  0  0  0
   -2.1434   -1.5646    0.0000 N   0  0  0  0  0  0  0  0  0  0  0  0
   -1.4289   -1.1521    0.0000 C   0  0  0  0  0  0  0  0  0  0  0  0
   -1.4289   -0.3271    0.0000 N   0  0  0  0  0  0  0  0  0  0  0  0
   -3.5724    0.0854    0.0000 Cl  0  0  0  0  0  0  0  0  0  0  0  0
   -0.7145   -1.5646    0.0000 N   0  0  0  0  0  0  0  0  0  0  0  0
   -1.4289    2.1479    0.0000 C   0  0  0  0  0  0  0  0  0  0  0  0
   -1.4289    1.3229    0.0000 C   0  0  0  0  0  0  0  0  0  0  0  0
   -0.7145    0.9104    0.0000 C   0  0  0  0  0  0  0  0  0  0  0  0
    0.0000    1.3229    0.0000 C   0  0  0  0  0  0  0  0  0  0  0  0
    0.0000    2.1479    0.0000 C   0  0  0  0  0  0  0  0  0  0  0  0
   -0.7145    2.5604    0.0000 C   0  0  0  0  0  0  0  0  0  0  0  0
   -2.1434    2.5604    0.0000 S   0  0  0  0  0  0  0  0  0  0  0  0
   -2.8579    2.1479    0.0000 C   0  0  0  0  0  0  0  0  0  0  0  0
   -2.1434    0.9104    0.0000 N   0  0  0  0  0  0  0  0  0  0  0  0
    0.0000   -1.1521    0.0000 C   0  0  0  0  0  0  0  0  0  0  0  0
    0.0000   -0.3271    0.0000 C   0  0  0  0  0  0  0  0  0  0  0  0
    0.7145   -1.5646    0.0000 C   0  0  0  0  0  0  0  0  0  0  0  0
    1.4289   -1.1521    0.0000 C   0  0  0  0  0  0  0  0  0  0  0  0
    1.4289   -0.3271    0.0000 C   0  0  0  0  0  0  0  0  0  0  0  0
    0.7145    0.0854    0.0000 C   0  0  0  0  0  0  0  0  0  0  0  0
    0.7145    0.9104    0.0000 C   0  0  0  0  0  0  0  0  0  0  0  0
    0.7145   -2.3896    0.0000 O   0  0  0  0  0  0  0  0  0  0  0  0
    1.2978   -2.9729    0.0000 C   0  0  0  0  0  0  0  0  0  0  0  0
    2.1434    0.0854    0.0000 C   0  0  0  0  0  0  0  0  0  0  0  0
   -3.5724    2.5604    0.0000 C   0  0  0  0  0  0  0  0  0  0  0  0
   -2.8579    1.3229    0.0000 C   0  0  0  0  0  0  0  0  0  0  0  0
   -2.8579    2.9729    0.0000 O   0  0  0  0  0  0  0  0  0  0  0  0
   -1.4289    2.9729    0.0000 O   0  0  0  0  0  0  0  0  0  0  0  0
    2.1434    0.9104    0.0000 N   0  0  0  0  0  0  0  0  0  0  0  0
    2.5559   -0.6290    0.0000 C   0  0  0  0  0  0  0  0  0  0  0  0
    2.9403    0.2990    0.0000 C   0  0  0  0  0  0  0  0  0  0  0  0
    2.8579    1.3229    0.0000 C   0  0  0  0  0  0  0  0  0  0  0  0
    3.5724    0.9104    0.0000 O   0  0  0  0  0  0  0  0  0  0  0  0
 17  1  1  0  0  0  0
  1  2  4  0  0  0  0
  2  3  4  0  0  0  0
  3  4  4  0  0  0  0
  4  5  4  0  0  0  0
  5  6  4  0  0  0  0
  6  1  4  0  0  0  0
  2  7  1  0  0  0  0
  5  8  1  0  0  0  0
  9 10  4  0  0  0  0
 10 11  4  0  0  0  0
 11 12  4  0  0  0  0
 12 13  4  0  0  0  0
 13 14  4  0  0  0  0
 14  9  4  0  0  0  0
  9 15  1  0  0  0  0
 15 16  1  0  0  0  0
 10 17  1  0  0  0  0
  8 18  1  0  0  0  0
 18 19  4  0  0  0  0
 18 20  4  0  0  0  0
 20 21  4  0  0  0  0
 21 22  4  0  0  0  0
 22 23  4  0  0  0  0
 23 19  4  0  0  0  0
 23 24  1  0  0  0  0
 20 25  1  0  0  0  0
 25 26  1  0  0  0  0
 22 27  1  0  0  0  0
 16 28  1  0  0  0  0
 16 29  1  0  0  0  0
 15 30  2  0  0  0  0
 15 31  2  0  0  0  0
 27 32  1  0  0  0  0
 27 33  1  0  0  0  0
 27 34  1  0  0  0  0
 32 35  1  0  0  0  0
 35 36  2  0  0  0  0
M  END
> <From>
www.bindingDB.org

> <BindingDB Reactant_set_id>
556969

> <Ligand InChI>
InChI=1S/C25H30ClN5O4S/c1-15(2)36(33,34)22-10-8-7-9-19(22)29-23-18(26)13-27-24(31-23)30-20-11-16(3)17(12-21(20)35-6)25(4,5)28-14-32/h7-15H,1-6H3,(H,28,32)(H2,27,29,30,31)

> <Ligand InChI Key>
UZPCCONBZIFGNY-UHFFFAOYSA-N

> <BindingDB MonomerID>
291991

> <BindingDB Ligand Name>
US10100019, Example 61

> <Target Name Assigned by Curator or DataSource>
ALK tyrosine kinase receptor

> <Target Source Organism According to Curator or DataSource>
Homo sapiens

> <Ki (nM)>


> <IC50 (nM)>
 2.10

> <Kd (nM)>


> <EC50 (nM)>


> <kon (M-1-s-1)>


> <koff (s-1)>


> <pH>


> <Temp C>
25.00

> <Curation/DataSource>
US Patent

> <Article DOI>
10.1016/j.bmcl.2006.04.076

> <PMID>


> <PubChem AID>


> <Patent Number>
US10100019

> <Authors>
Kim, P; Kim, HR; Cho, SY; Ha, JD; Jung, HJ; Yun, CS; Hwang, JY; Park, CH; Lee, CO; Ahn, S; Chae, CH

> <Institution>
Korea Research Institute of Chemical Technology

> <Link to Ligand in BindingDB>
http://www.bindingdb.org/bind/chemsearch/marvin/MolStructure.jsp?monomerid=291991

> <Link to Ligand-Target Pair in BindingDB>
http://www.bindingdb.org/jsp/dbsearch/PrimarySearch_ki.jsp?energyterm=kJ/mole&tag=pol&polymerid=5809&target=ALK+tyrosine+kinase+receptor&column=ki&startPg=0&Increment=50&submit=Search

> <Link to Ligand-Target Pair in BindingDB>
http://www.bindingdb.org/jsp/dbsearch/PrimarySearch_ki.jsp?energyterm=kJ/mole&tag=r21&monomerid=291991&enzyme=ALK+tyrosine+kinase+receptor&column=ki&startPg=0&Increment=50&submit=Search

> <Ligand HET ID in PDB>


> <PDB ID(s) for Ligand-Target Complex>


> <PubChem CID>
134449973

> <PubChem SID>
381612290

> <ChEBI ID of Ligand>


> <ChEMBL ID of Ligand>


> <DrugBank ID of Ligand>


> <IUPHAR_GRAC ID of Ligand>


> <KEGG ID of Ligand>
C06049

> <ZINC ID of Ligand>


> <Number of Protein Chains in Target (>1 implies a multichain complex)>
1

> <BindingDB Target Chain Sequence>
MGAIGLLWLLPLLLSTAAVGSGMGTGQRAGSPAAGPPLQPREPLSYSRLQRKSLAVDFVVPSLFRVYARDLLLPPSSSELKAGRPEARGSLALDCAPLLRLLGPAPGVSWTAGSPAPAEARTLSRVLKGGSVRKLRRAKQLVLELGEEAILEGCVGPPGEAAVGLLQFNLSELFSWWIRQGEGRLRIRLMPEKKASEVGREGRLSAAIRASQPRLLFQIFGTGHSSLESPTNMPSPSPDYFTWNLTWIMKDSFPFLSHRSRYGLECSFDFPCELEYSPPLHDLRNQSWSWRRIPSEEASQMDLLDGPGAERSKEMPRGSFLLLNTSADSKHTILSPWMRSSSEHCTLAVSVHRHLQPSGRYIAQLLPHNEAAREILLMPTPGKHGWTVLQGRIGRPDNPFRVALEYISSGNRSLSAVDFFALKNCSEGTSPGSKMALQSSFTCWNGTVLQLGQACDFHQDCAQGEDESQMCRKLPVGFYCNFEDGFCGWTQGTLSPHTPQWQVRTLKDARFQDHQDHALLLSTTDVPASESATVTSATFPAPIKSSPCELRMSWLIRGVLRGNVSLVLVENKTGKEQGRMVWHVAAYEGLSLWQWMVLPLLDVSDRFWLQMVAWWGQGSRAIVAFDNISISLDCYLTISGEDKILQNTAPKSRNLFERNPNKELKPGENSPRQTPIFDPTVHWLFTTCGASGPHGPTQAQCNNAYQNSNLSVEVGSEGPLKGIQIWKVPATDTYSISGYGAAGGKGGKNTMMRSHGVSVLGIFNLEKDDMLYILVGQQGEDACPSTNQLIQKVCIGENNVIEEEIRVNRSVHEWAGGGGGGGGATYVFKMKDGVPVPLIIAAGGGGRAYGAKTDTFHPERLENNSSVLGLNGNSGAAGGGGGWNDNTSLLWAGKSLQEGATGGHSCPQAMKKWGWETRGGFGGGGGGCSSGGGGGGYIGGNAASNNDPEMDGEDGVSFISPLGILYTPALKVMEGHGEVNIKHYLNCSHCEVDECHMDPESHKVICFCDHGTVLAEDGVSCIVSPTPEPHLPLSLILSVVTSALVAALVLAFSGIMIVYRRKHQELQAMQMELQSPEYKLSKLRTSTIMTDYNPNYCFAGKTSSISDLKEVPRKNITLIRGLGHGAFGEVYEGQVSGMPNDPSPLQVAVKTLPEVCSEQDELDFLMEALIISKFNHQNIVRCIGVSLQSLPRFILLELMAGGDLKSFLRETRPRPSQPSSLAMLDLLHVARDIACGCQYLEENHFIHRDIAARNCLLTCPGPGRVAKIGDFGMARDIYRASYYRKGGCAMLPVKWMPPEAFMEGIFTSKTDTWSFGVLLWEIFSLGYMPYPSKSNQEVLEFVTSGGRMDPPKNCPGPVYRIMTQCWQHQPEDRPNFAIILERIEYCTQDPDVINTALPIEYGPLVEEEEKVPVRPKDPEGVPPLLVSQQAKREEERSPAAPPPLPTTSSGKAAKKPTAAEISVRVPRGPAVEGGHVNMAFSQSNPPSELHKVHGSRNKPTSLWNPTYGSWFTEKPTKKNNPIAKKEPHDRGNLGLEGSCTVPPNVATGRLPGASLLLEPSSLTANMKEVPLFRLRHFPCGNVNYGYQQQGLPLEAATAPGAGHYEDTILKSKNSMNQPGP

> <PDB ID(s) of Target Chain>
2XB7,2XBA,3AOX,5FTO,5FTQ,6E0R,6EBW,6EDL,6MX8

> <UniProt (SwissProt) Recommended Name of Target Chain>
ALK tyrosine kinase receptor

> <UniProt (SwissProt) Entry Name of Target Chain>
ALK_HUMAN

> <UniProt (SwissProt) Primary ID of Target Chain>
Q9UM73

> <UniProt (SwissProt) Secondary ID(s) of Target Chain>
Q4ZFX9,Q53QQ6,Q53RZ4,Q59FI3,Q9Y4K6

> <UniProt (SwissProt) Alternative ID(s) of Target Chain>


> <UniProt (TrEMBL) Submitted Name of Target Chain>


> <UniProt (TrEMBL) Entry Name of Target Chain>


> <UniProt (TrEMBL) Primary ID of Target Chain>


> <UniProt (TrEMBL) Secondary ID(s) of Target Chain>


> <UniProt (TrEMBL) Alternative ID(s) of Target Chain>


$$$$
00196001.cdx
  Mrv0541 02211919242D          

 35 37  0  0  0  0            999 V2000
   -2.1434    0.0854    0.0000 C   0  0  0  0  0  0  0  0  0  0  0  0
   -2.8579   -0.3271    0.0000 C   0  0  0  0  0  0  0  0  0  0  0  0
   -2.8579   -1.1521    0.0000 C   0  0  0  0  0  0  0  0  0  0  0  0
   -2.1434   -1.5646    0.0000 N   0  0  0  0  0  0  0  0  0  0  0  0
   -1.4289   -1.1521    0.0000 C   0  0  0  0  0  0  0  0  0  0  0  0
   -1.4289   -0.3271    0.0000 N   0  0  0  0  0  0  0  0  0  0  0  0
   -3.5724    0.0854    0.0000 Cl  0  0  0  0  0  0  0  0  0  0  0  0
   -0.7145   -1.5646    0.0000 N   0  0  0  0  0  0  0  0  0  0  0  0
   -1.4289    2.1479    0.0000 C   0  0  0  0  0  0  0  0  0  0  0  0
   -1.4289    1.3229    0.0000 C   0  0  0  0  0  0  0  0  0  0  0  0
   -0.7145    0.9104    0.0000 C   0  0  0  0  0  0  0  0  0  0  0  0
    0.0000    1.3229    0.0000 C   0  0  0  0  0  0  0  0  0  0  0  0
    0.0000    2.1479    0.0000 C   0  0  0  0  0  0  0  0  0  0  0  0
   -0.7145    2.5604    0.0000 C   0  0  0  0  0  0  0  0  0  0  0  0
   -2.1434    2.5604    0.0000 S   0  0  0  0  0  0  0  0  0  0  0  0
   -2.8579    2.1479    0.0000 C   0  0  0  0  0  0  0  0  0  0  0  0
   -2.1434    0.9104    0.0000 N   0  0  0  0  0  0  0  0  0  0  0  0
    0.0000   -1.1521    0.0000 C   0  0  0  0  0  0  0  0  0  0  0  0
    0.0000   -0.3271    0.0000 C   0  0  0  0  0  0  0  0  0  0  0  0
    0.7145   -1.5646    0.0000 C   0  0  0  0  0  0  0  0  0  0  0  0
    1.4289   -1.1521    0.0000 C   0  0  0  0  0  0  0  0  0  0  0  0
    1.4289   -0.3271    0.0000 C   0  0  0  0  0  0  0  0  0  0  0  0
    0.7145    0.0854    0.0000 C   0  0  0  0  0  0  0  0  0  0  0  0
    0.7145    0.9104    0.0000 C   0  0  0  0  0  0  0  0  0  0  0  0
    0.7145   -2.3896    0.0000 O   0  0  0  0  0  0  0  0  0  0  0  0
    1.2978   -2.9729    0.0000 C   0  0  0  0  0  0  0  0  0  0  0  0
    2.1434    0.0854    0.0000 C   0  0  0  0  0  0  0  0  0  0  0  0
   -3.5724    2.5604    0.0000 C   0  0  0  0  0  0  0  0  0  0  0  0
   -2.8579    1.3229    0.0000 C   0  0  0  0  0  0  0  0  0  0  0  0
   -2.8579    2.9729    0.0000 O   0  0  0  0  0  0  0  0  0  0  0  0
   -1.4289    2.9729    0.0000 O   0  0  0  0  0  0  0  0  0  0  0  0
    2.1434    0.9104    0.0000 C   0  0  0  0  0  0  0  0  0  0  0  0
    2.8579    1.3229    0.0000 N   0  0  0  0  0  0  0  0  0  0  0  0
    2.8579    2.1479    0.0000 C   0  0  0  0  0  0  0  0  0  0  0  0
    2.1434    2.5604    0.0000 O   0  0  0  0  0  0  0  0  0  0  0  0
 17  1  1  0  0  0  0
  1  2  4  0  0  0  0
  2  3  4  0  0  0  0
  3  4  4  0  0  0  0
  4  5  4  0  0  0  0
  5  6  4  0  0  0  0
  6  1  4  0  0  0  0
  2  7  1  0  0  0  0
  5  8  1  0  0  0  0
  9 10  4  0  0  0  0
 10 11  4  0  0  0  0
 11 12  4  0  0  0  0
 12 13  4  0  0  0  0
 13 14  4  0  0  0  0
 14  9  4  0  0  0  0
  9 15  1  0  0  0  0
 15 16  1  0  0  0  0
 10 17  1  0  0  0  0
  8 18  1  0  0  0  0
 18 19  4  0  0  0  0
 18 20  4  0  0  0  0
 20 21  4  0  0  0  0
 21 22  4  0  0  0  0
 22 23  4  0  0  0  0
 23 19  4  0  0  0  0
 23 24  1  0  0  0  0
 20 25  1  0  0  0  0
 25 26  1  0  0  0  0
 22 27  1  0  0  0  0
 16 28  1  0  0  0  0
 16 29  1  0  0  0  0
 15 30  2  0  0  0  0
 15 31  2  0  0  0  0
 27 32  1  0  0  0  0
 32 33  1  0  0  0  0
 33 34  1  0  0  0  0
 34 35  2  0  0  0  0
M  END
> <From>
www.bindingDB.org

> <BindingDB Reactant_set_id>
556970

> <Ligand InChI>
InChI=1S/C24H28ClN5O4S/c1-15(2)35(32,33)22-8-6-5-7-19(22)28-23-18(25)13-27-24(30-23)29-20-11-16(3)17(9-10-26-14-31)12-21(20)34-4/h5-8,11-15H,9-10H2,1-4H3,(H,26,31)(H2,27,28,29,30)

> <Ligand InChI Key>
WXMYXQYBHNGGNH-UHFFFAOYSA-N

> <BindingDB MonomerID>
291992

> <BindingDB Ligand Name>
US10100019, Example 62

> <Target Name Assigned by Curator or DataSource>
ALK tyrosine kinase receptor

> <Target Source Organism According to Curator or DataSource>
Homo sapiens

> <Ki (nM)>


> <IC50 (nM)>
 4.00

> <Kd (nM)>


> <EC50 (nM)>


> <kon (M-1-s-1)>


> <koff (s-1)>


> <pH>


> <Temp C>
25.00

> <Curation/DataSource>
US Patent

> <Article DOI>
10.1016/j.bmcl.2006.04.076

> <PMID>


> <PubChem AID>


> <Patent Number>
US10100019

> <Authors>
Kim, P; Kim, HR; Cho, SY; Ha, JD; Jung, HJ; Yun, CS; Hwang, JY; Park, CH; Lee, CO; Ahn, S; Chae, CH

> <Institution>
Korea Research Institute of Chemical Technology

> <Link to Ligand in BindingDB>
http://www.bindingdb.org/bind/chemsearch/marvin/MolStructure.jsp?monomerid=291992

> <Link to Ligand-Target Pair in BindingDB>
http://www.bindingdb.org/jsp/dbsearch/PrimarySearch_ki.jsp?energyterm=kJ/mole&tag=pol&polymerid=5809&target=ALK+tyrosine+kinase+receptor&column=ki&startPg=0&Increment=50&submit=Search

> <Link to Ligand-Target Pair in BindingDB>
http://www.bindingdb.org/jsp/dbsearch/PrimarySearch_ki.jsp?energyterm=kJ/mole&tag=r21&monomerid=291992&enzyme=ALK+tyrosine+kinase+receptor&column=ki&startPg=0&Increment=50&submit=Search

> <Ligand HET ID in PDB>


> <PDB ID(s) for Ligand-Target Complex>


> <PubChem CID>
134449976

> <PubChem SID>
381612291

> <ChEBI ID of Ligand>


> <ChEMBL ID of Ligand>


> <DrugBank ID of Ligand>


> <IUPHAR_GRAC ID of Ligand>


> <KEGG ID of Ligand>
C06049

> <ZINC ID of Ligand>


> <Number of Protein Chains in Target (>1 implies a multichain complex)>
1

> <BindingDB Target Chain Sequence>
MGAIGLLWLLPLLLSTAAVGSGMGTGQRAGSPAAGPPLQPREPLSYSRLQRKSLAVDFVVPSLFRVYARDLLLPPSSSELKAGRPEARGSLALDCAPLLRLLGPAPGVSWTAGSPAPAEARTLSRVLKGGSVRKLRRAKQLVLELGEEAILEGCVGPPGEAAVGLLQFNLSELFSWWIRQGEGRLRIRLMPEKKASEVGREGRLSAAIRASQPRLLFQIFGTGHSSLESPTNMPSPSPDYFTWNLTWIMKDSFPFLSHRSRYGLECSFDFPCELEYSPPLHDLRNQSWSWRRIPSEEASQMDLLDGPGAERSKEMPRGSFLLLNTSADSKHTILSPWMRSSSEHCTLAVSVHRHLQPSGRYIAQLLPHNEAAREILLMPTPGKHGWTVLQGRIGRPDNPFRVALEYISSGNRSLSAVDFFALKNCSEGTSPGSKMALQSSFTCWNGTVLQLGQACDFHQDCAQGEDESQMCRKLPVGFYCNFEDGFCGWTQGTLSPHTPQWQVRTLKDARFQDHQDHALLLSTTDVPASESATVTSATFPAPIKSSPCELRMSWLIRGVLRGNVSLVLVENKTGKEQGRMVWHVAAYEGLSLWQWMVLPLLDVSDRFWLQMVAWWGQGSRAIVAFDNISISLDCYLTISGEDKILQNTAPKSRNLFERNPNKELKPGENSPRQTPIFDPTVHWLFTTCGASGPHGPTQAQCNNAYQNSNLSVEVGSEGPLKGIQIWKVPATDTYSISGYGAAGGKGGKNTMMRSHGVSVLGIFNLEKDDMLYILVGQQGEDACPSTNQLIQKVCIGENNVIEEEIRVNRSVHEWAGGGGGGGGATYVFKMKDGVPVPLIIAAGGGGRAYGAKTDTFHPERLENNSSVLGLNGNSGAAGGGGGWNDNTSLLWAGKSLQEGATGGHSCPQAMKKWGWETRGGFGGGGGGCSSGGGGGGYIGGNAASNNDPEMDGEDGVSFISPLGILYTPALKVMEGHGEVNIKHYLNCSHCEVDECHMDPESHKVICFCDHGTVLAEDGVSCIVSPTPEPHLPLSLILSVVTSALVAALVLAFSGIMIVYRRKHQELQAMQMELQSPEYKLSKLRTSTIMTDYNPNYCFAGKTSSISDLKEVPRKNITLIRGLGHGAFGEVYEGQVSGMPNDPSPLQVAVKTLPEVCSEQDELDFLMEALIISKFNHQNIVRCIGVSLQSLPRFILLELMAGGDLKSFLRETRPRPSQPSSLAMLDLLHVARDIACGCQYLEENHFIHRDIAARNCLLTCPGPGRVAKIGDFGMARDIYRASYYRKGGCAMLPVKWMPPEAFMEGIFTSKTDTWSFGVLLWEIFSLGYMPYPSKSNQEVLEFVTSGGRMDPPKNCPGPVYRIMTQCWQHQPEDRPNFAIILERIEYCTQDPDVINTALPIEYGPLVEEEEKVPVRPKDPEGVPPLLVSQQAKREEERSPAAPPPLPTTSSGKAAKKPTAAEISVRVPRGPAVEGGHVNMAFSQSNPPSELHKVHGSRNKPTSLWNPTYGSWFTEKPTKKNNPIAKKEPHDRGNLGLEGSCTVPPNVATGRLPGASLLLEPSSLTANMKEVPLFRLRHFPCGNVNYGYQQQGLPLEAATAPGAGHYEDTILKSKNSMNQPGP

> <PDB ID(s) of Target Chain>
2XB7,2XBA,3AOX,5FTO,5FTQ,6E0R,6EBW,6EDL,6MX8

> <UniProt (SwissProt) Recommended Name of Target Chain>
ALK tyrosine kinase receptor

> <UniProt (SwissProt) Entry Name of Target Chain>
ALK_HUMAN

> <UniProt (SwissProt) Primary ID of Target Chain>
Q9UM73

> <UniProt (SwissProt) Secondary ID(s) of Target Chain>
Q4ZFX9,Q53QQ6,Q53RZ4,Q59FI3,Q9Y4K6

> <UniProt (SwissProt) Alternative ID(s) of Target Chain>


> <UniProt (TrEMBL) Submitted Name of Target Chain>


> <UniProt (TrEMBL) Entry Name of Target Chain>


> <UniProt (TrEMBL) Primary ID of Target Chain>


> <UniProt (TrEMBL) Secondary ID(s) of Target Chain>


> <UniProt (TrEMBL) Alternative ID(s) of Target Chain>


$$$$
00197001.cdx
  Mrv0541 02211919242D          

 34 36  0  0  0  0            999 V2000
   -1.7862    0.0854    0.0000 C   0  0  0  0  0  0  0  0  0  0  0  0
   -2.5006   -0.3271    0.0000 C   0  0  0  0  0  0  0  0  0  0  0  0
   -2.5006   -1.1521    0.0000 C   0  0  0  0  0  0  0  0  0  0  0  0
   -1.7862   -1.5646    0.0000 N   0  0  0  0  0  0  0  0  0  0  0  0
   -1.0717   -1.1521    0.0000 C   0  0  0  0  0  0  0  0  0  0  0  0
   -1.0717   -0.3271    0.0000 N   0  0  0  0  0  0  0  0  0  0  0  0
   -3.2151    0.0854    0.0000 Cl  0  0  0  0  0  0  0  0  0  0  0  0
   -0.3572   -1.5646    0.0000 N   0  0  0  0  0  0  0  0  0  0  0  0
   -1.0717    2.1479    0.0000 C   0  0  0  0  0  0  0  0  0  0  0  0
   -1.0717    1.3229    0.0000 C   0  0  0  0  0  0  0  0  0  0  0  0
   -0.3572    0.9104    0.0000 C   0  0  0  0  0  0  0  0  0  0  0  0
    0.3572    1.3229    0.0000 C   0  0  0  0  0  0  0  0  0  0  0  0
    0.3572    2.1479    0.0000 C   0  0  0  0  0  0  0  0  0  0  0  0
   -0.3572    2.5604    0.0000 C   0  0  0  0  0  0  0  0  0  0  0  0
   -1.7862    2.5604    0.0000 S   0  0  0  0  0  0  0  0  0  0  0  0
   -2.5006    2.1479    0.0000 C   0  0  0  0  0  0  0  0  0  0  0  0
   -1.7862    0.9104    0.0000 N   0  0  0  0  0  0  0  0  0  0  0  0
    0.3572   -1.1521    0.0000 C   0  0  0  0  0  0  0  0  0  0  0  0
    0.3572   -0.3271    0.0000 C   0  0  0  0  0  0  0  0  0  0  0  0
    1.0717   -1.5646    0.0000 C   0  0  0  0  0  0  0  0  0  0  0  0
    1.7862   -1.1521    0.0000 C   0  0  0  0  0  0  0  0  0  0  0  0
    1.7862   -0.3271    0.0000 C   0  0  0  0  0  0  0  0  0  0  0  0
    1.0717    0.0854    0.0000 C   0  0  0  0  0  0  0  0  0  0  0  0
    1.0717    0.9104    0.0000 C   0  0  0  0  0  0  0  0  0  0  0  0
    1.0717   -2.3896    0.0000 O   0  0  0  0  0  0  0  0  0  0  0  0
    1.6551   -2.9729    0.0000 C   0  0  0  0  0  0  0  0  0  0  0  0
    2.5006    0.0854    0.0000 C   0  0  0  0  0  0  0  0  0  0  0  0
   -3.2151    2.5604    0.0000 C   0  0  0  0  0  0  0  0  0  0  0  0
   -2.5006    1.3229    0.0000 C   0  0  0  0  0  0  0  0  0  0  0  0
   -2.5006    2.9729    0.0000 O   0  0  0  0  0  0  0  0  0  0  0  0
   -1.0717    2.9729    0.0000 O   0  0  0  0  0  0  0  0  0  0  0  0
    2.5006    0.9104    0.0000 C   0  0  0  0  0  0  0  0  0  0  0  0
    3.2151    1.3229    0.0000 N   0  0  0  0  0  0  0  0  0  0  0  0
    3.2151    2.1479    0.0000 C   0  0  0  0  0  0  0  0  0  0  0  0
 17  1  1  0  0  0  0
  1  2  4  0  0  0  0
  2  3  4  0  0  0  0
  3  4  4  0  0  0  0
  4  5  4  0  0  0  0
  5  6  4  0  0  0  0
  6  1  4  0  0  0  0
  2  7  1  0  0  0  0
  5  8  1  0  0  0  0
  9 10  4  0  0  0  0
 10 11  4  0  0  0  0
 11 12  4  0  0  0  0
 12 13  4  0  0  0  0
 13 14  4  0  0  0  0
 14  9  4  0  0  0  0
  9 15  1  0  0  0  0
 15 16  1  0  0  0  0
 10 17  1  0  0  0  0
  8 18  1  0  0  0  0
 18 19  4  0  0  0  0
 18 20  4  0  0  0  0
 20 21  4  0  0  0  0
 21 22  4  0  0  0  0
 22 23  4  0  0  0  0
 23 19  4  0  0  0  0
 23 24  1  0  0  0  0
 20 25  1  0  0  0  0
 25 26  1  0  0  0  0
 22 27  1  0  0  0  0
 16 28  1  0  0  0  0
 16 29  1  0  0  0  0
 15 30  2  0  0  0  0
 15 31  2  0  0  0  0
 27 32  1  0  0  0  0
 32 33  1  0  0  0  0
 33 34  1  0  0  0  0
M  END
> <From>
www.bindingDB.org

> <BindingDB Reactant_set_id>
556971

> <Ligand InChI>
InChI=1S/C24H30ClN5O3S/c1-15(2)34(31,32)22-9-7-6-8-19(22)28-23-18(25)14-27-24(30-23)29-20-12-16(3)17(10-11-26-4)13-21(20)33-5/h6-9,12-15,26H,10-11H2,1-5H3,(H2,27,28,29,30)

> <Ligand InChI Key>
UBXWHWZWWVQYGU-UHFFFAOYSA-N

> <BindingDB MonomerID>
291993

> <BindingDB Ligand Name>
US10100019, Example 63

> <Target Name Assigned by Curator or DataSource>
ALK tyrosine kinase receptor

> <Target Source Organism According to Curator or DataSource>
Homo sapiens

> <Ki (nM)>


> <IC50 (nM)>
 1.50

> <Kd (nM)>


> <EC50 (nM)>


> <kon (M-1-s-1)>


> <koff (s-1)>


> <pH>


> <Temp C>
25.00

> <Curation/DataSource>
US Patent

> <Article DOI>
10.1016/j.bmcl.2006.04.076

> <PMID>


> <PubChem AID>


> <Patent Number>
US10100019

> <Authors>
Kim, P; Kim, HR; Cho, SY; Ha, JD; Jung, HJ; Yun, CS; Hwang, JY; Park, CH; Lee, CO; Ahn, S; Chae, CH

> <Institution>
Korea Research Institute of Chemical Technology

> <Link to Ligand in BindingDB>
http://www.bindingdb.org/bind/chemsearch/marvin/MolStructure.jsp?monomerid=291993

> <Link to Ligand-Target Pair in BindingDB>
http://www.bindingdb.org/jsp/dbsearch/PrimarySearch_ki.jsp?energyterm=kJ/mole&tag=pol&polymerid=5809&target=ALK+tyrosine+kinase+receptor&column=ki&startPg=0&Increment=50&submit=Search

> <Link to Ligand-Target Pair in BindingDB>
http://www.bindingdb.org/jsp/dbsearch/PrimarySearch_ki.jsp?energyterm=kJ/mole&tag=r21&monomerid=291993&enzyme=ALK+tyrosine+kinase+receptor&column=ki&startPg=0&Increment=50&submit=Search

> <Ligand HET ID in PDB>


> <PDB ID(s) for Ligand-Target Complex>


> <PubChem CID>
134449974

> <PubChem SID>
381612292

> <ChEBI ID of Ligand>


> <ChEMBL ID of Ligand>


> <DrugBank ID of Ligand>


> <IUPHAR_GRAC ID of Ligand>


> <KEGG ID of Ligand>


> <ZINC ID of Ligand>


> <Number of Protein Chains in Target (>1 implies a multichain complex)>
1

> <BindingDB Target Chain Sequence>
MGAIGLLWLLPLLLSTAAVGSGMGTGQRAGSPAAGPPLQPREPLSYSRLQRKSLAVDFVVPSLFRVYARDLLLPPSSSELKAGRPEARGSLALDCAPLLRLLGPAPGVSWTAGSPAPAEARTLSRVLKGGSVRKLRRAKQLVLELGEEAILEGCVGPPGEAAVGLLQFNLSELFSWWIRQGEGRLRIRLMPEKKASEVGREGRLSAAIRASQPRLLFQIFGTGHSSLESPTNMPSPSPDYFTWNLTWIMKDSFPFLSHRSRYGLECSFDFPCELEYSPPLHDLRNQSWSWRRIPSEEASQMDLLDGPGAERSKEMPRGSFLLLNTSADSKHTILSPWMRSSSEHCTLAVSVHRHLQPSGRYIAQLLPHNEAAREILLMPTPGKHGWTVLQGRIGRPDNPFRVALEYISSGNRSLSAVDFFALKNCSEGTSPGSKMALQSSFTCWNGTVLQLGQACDFHQDCAQGEDESQMCRKLPVGFYCNFEDGFCGWTQGTLSPHTPQWQVRTLKDARFQDHQDHALLLSTTDVPASESATVTSATFPAPIKSSPCELRMSWLIRGVLRGNVSLVLVENKTGKEQGRMVWHVAAYEGLSLWQWMVLPLLDVSDRFWLQMVAWWGQGSRAIVAFDNISISLDCYLTISGEDKILQNTAPKSRNLFERNPNKELKPGENSPRQTPIFDPTVHWLFTTCGASGPHGPTQAQCNNAYQNSNLSVEVGSEGPLKGIQIWKVPATDTYSISGYGAAGGKGGKNTMMRSHGVSVLGIFNLEKDDMLYILVGQQGEDACPSTNQLIQKVCIGENNVIEEEIRVNRSVHEWAGGGGGGGGATYVFKMKDGVPVPLIIAAGGGGRAYGAKTDTFHPERLENNSSVLGLNGNSGAAGGGGGWNDNTSLLWAGKSLQEGATGGHSCPQAMKKWGWETRGGFGGGGGGCSSGGGGGGYIGGNAASNNDPEMDGEDGVSFISPLGILYTPALKVMEGHGEVNIKHYLNCSHCEVDECHMDPESHKVICFCDHGTVLAEDGVSCIVSPTPEPHLPLSLILSVVTSALVAALVLAFSGIMIVYRRKHQELQAMQMELQSPEYKLSKLRTSTIMTDYNPNYCFAGKTSSISDLKEVPRKNITLIRGLGHGAFGEVYEGQVSGMPNDPSPLQVAVKTLPEVCSEQDELDFLMEALIISKFNHQNIVRCIGVSLQSLPRFILLELMAGGDLKSFLRETRPRPSQPSSLAMLDLLHVARDIACGCQYLEENHFIHRDIAARNCLLTCPGPGRVAKIGDFGMARDIYRASYYRKGGCAMLPVKWMPPEAFMEGIFTSKTDTWSFGVLLWEIFSLGYMPYPSKSNQEVLEFVTSGGRMDPPKNCPGPVYRIMTQCWQHQPEDRPNFAIILERIEYCTQDPDVINTALPIEYGPLVEEEEKVPVRPKDPEGVPPLLVSQQAKREEERSPAAPPPLPTTSSGKAAKKPTAAEISVRVPRGPAVEGGHVNMAFSQSNPPSELHKVHGSRNKPTSLWNPTYGSWFTEKPTKKNNPIAKKEPHDRGNLGLEGSCTVPPNVATGRLPGASLLLEPSSLTANMKEVPLFRLRHFPCGNVNYGYQQQGLPLEAATAPGAGHYEDTILKSKNSMNQPGP

> <PDB ID(s) of Target Chain>
2XB7,2XBA,3AOX,5FTO,5FTQ,6E0R,6EBW,6EDL,6MX8

> <UniProt (SwissProt) Recommended Name of Target Chain>
ALK tyrosine kinase receptor

> <UniProt (SwissProt) Entry Name of Target Chain>
ALK_HUMAN

> <UniProt (SwissProt) Primary ID of Target Chain>
Q9UM73

> <UniProt (SwissProt) Secondary ID(s) of Target Chain>
Q4ZFX9,Q53QQ6,Q53RZ4,Q59FI3,Q9Y4K6

> <UniProt (SwissProt) Alternative ID(s) of Target Chain>


> <UniProt (TrEMBL) Submitted Name of Target Chain>


> <UniProt (TrEMBL) Entry Name of Target Chain>


> <UniProt (TrEMBL) Primary ID of Target Chain>


> <UniProt (TrEMBL) Secondary ID(s) of Target Chain>


> <UniProt (TrEMBL) Alternative ID(s) of Target Chain>


$$$$
00203001.cdx
  Mrv0541 02211919242D          

 35 37  0  0  0  0            999 V2000
   -1.7862    0.0854    0.0000 C   0  0  0  0  0  0  0  0  0  0  0  0
   -2.5006   -0.3271    0.0000 C   0  0  0  0  0  0  0  0  0  0  0  0
   -2.5006   -1.1521    0.0000 C   0  0  0  0  0  0  0  0  0  0  0  0
   -1.7862   -1.5646    0.0000 N   0  0  0  0  0  0  0  0  0  0  0  0
   -1.0717   -1.1521    0.0000 C   0  0  0  0  0  0  0  0  0  0  0  0
   -1.0717   -0.3271    0.0000 N   0  0  0  0  0  0  0  0  0  0  0  0
   -3.2151    0.0854    0.0000 Cl  0  0  0  0  0  0  0  0  0  0  0  0
   -0.3572   -1.5646    0.0000 N   0  0  0  0  0  0  0  0  0  0  0  0
   -1.0717    2.1479    0.0000 C   0  0  0  0  0  0  0  0  0  0  0  0
   -1.0717    1.3229    0.0000 C   0  0  0  0  0  0  0  0  0  0  0  0
   -0.3572    0.9104    0.0000 C   0  0  0  0  0  0  0  0  0  0  0  0
    0.3572    1.3229    0.0000 C   0  0  0  0  0  0  0  0  0  0  0  0
    0.3572    2.1479    0.0000 C   0  0  0  0  0  0  0  0  0  0  0  0
   -0.3572    2.5604    0.0000 C   0  0  0  0  0  0  0  0  0  0  0  0
   -1.7862    2.5604    0.0000 S   0  0  0  0  0  0  0  0  0  0  0  0
   -2.5006    2.1479    0.0000 C   0  0  0  0  0  0  0  0  0  0  0  0
   -1.7862    0.9104    0.0000 N   0  0  0  0  0  0  0  0  0  0  0  0
    0.3572   -1.1521    0.0000 C   0  0  0  0  0  0  0  0  0  0  0  0
    0.3572   -0.3271    0.0000 C   0  0  0  0  0  0  0  0  0  0  0  0
    1.0717   -1.5646    0.0000 C   0  0  0  0  0  0  0  0  0  0  0  0
    1.7862   -1.1521    0.0000 C   0  0  0  0  0  0  0  0  0  0  0  0
    1.7862   -0.3271    0.0000 C   0  0  0  0  0  0  0  0  0  0  0  0
    1.0717    0.0854    0.0000 C   0  0  0  0  0  0  0  0  0  0  0  0
    1.0717    0.9104    0.0000 C   0  0  0  0  0  0  0  0  0  0  0  0
    1.0717   -2.3896    0.0000 O   0  0  0  0  0  0  0  0  0  0  0  0
    1.6551   -2.9729    0.0000 C   0  0  0  0  0  0  0  0  0  0  0  0
    2.5006    0.0854    0.0000 C   0  0  0  0  0  0  0  0  0  0  0  0
   -3.2151    2.5604    0.0000 C   0  0  0  0  0  0  0  0  0  0  0  0
   -2.5006    1.3229    0.0000 C   0  0  0  0  0  0  0  0  0  0  0  0
   -2.5006    2.9729    0.0000 O   0  0  0  0  0  0  0  0  0  0  0  0
   -1.0717    2.9729    0.0000 O   0  0  0  0  0  0  0  0  0  0  0  0
    2.0881    0.7999    0.0000 N   0  0  0  0  0  0  0  0  0  0  0  0
    2.9131   -0.6290    0.0000 C   0  0  0  0  0  0  0  0  0  0  0  0
    3.2151    0.4979    0.0000 C   0  0  0  0  0  0  0  0  0  0  0  0
    2.5006    1.5144    0.0000 C   0  0  0  0  0  0  0  0  0  0  0  0
 17  1  1  0  0  0  0
  1  2  4  0  0  0  0
  2  3  4  0  0  0  0
  3  4  4  0  0  0  0
  4  5  4  0  0  0  0
  5  6  4  0  0  0  0
  6  1  4  0  0  0  0
  2  7  1  0  0  0  0
  5  8  1  0  0  0  0
  9 10  4  0  0  0  0
 10 11  4  0  0  0  0
 11 12  4  0  0  0  0
 12 13  4  0  0  0  0
 13 14  4  0  0  0  0
 14  9  4  0  0  0  0
  9 15  1  0  0  0  0
 15 16  1  0  0  0  0
 10 17  1  0  0  0  0
  8 18  1  0  0  0  0
 18 19  4  0  0  0  0
 18 20  4  0  0  0  0
 20 21  4  0  0  0  0
 21 22  4  0  0  0  0
 22 23  4  0  0  0  0
 23 19  4  0  0  0  0
 23 24  1  0  0  0  0
 20 25  1  0  0  0  0
 25 26  1  0  0  0  0
 22 27  1  0  0  0  0
 16 28  1  0  0  0  0
 16 29  1  0  0  0  0
 15 30  2  0  0  0  0
 15 31  2  0  0  0  0
 27 32  1  0  0  0  0
 27 33  1  0  0  0  0
 27 34  1  0  0  0  0
 32 35  1  0  0  0  0
M  END
> <From>
www.bindingDB.org

> <BindingDB Reactant_set_id>
556972

> <Ligand InChI>
InChI=1S/C25H32ClN5O3S/c1-15(2)35(32,33)22-11-9-8-10-19(22)29-23-18(26)14-28-24(31-23)30-20-12-16(3)17(13-21(20)34-7)25(4,5)27-6/h8-15,27H,1-7H3,(H2,28,29,30,31)

> <Ligand InChI Key>
HXFVZOYBPSIUHZ-UHFFFAOYSA-N

> <BindingDB MonomerID>
291994

> <BindingDB Ligand Name>
US10100019, Example 64

> <Target Name Assigned by Curator or DataSource>
ALK tyrosine kinase receptor

> <Target Source Organism According to Curator or DataSource>
Homo sapiens

> <Ki (nM)>


> <IC50 (nM)>
 1.20

> <Kd (nM)>


> <EC50 (nM)>


> <kon (M-1-s-1)>


> <koff (s-1)>


> <pH>


> <Temp C>
25.00

> <Curation/DataSource>
US Patent

> <Article DOI>
10.1016/j.bmcl.2006.04.076

> <PMID>


> <PubChem AID>


> <Patent Number>
US10100019

> <Authors>
Kim, P; Kim, HR; Cho, SY; Ha, JD; Jung, HJ; Yun, CS; Hwang, JY; Park, CH; Lee, CO; Ahn, S; Chae, CH

> <Institution>
Korea Research Institute of Chemical Technology

> <Link to Ligand in BindingDB>
http://www.bindingdb.org/bind/chemsearch/marvin/MolStructure.jsp?monomerid=291994

> <Link to Ligand-Target Pair in BindingDB>
http://www.bindingdb.org/jsp/dbsearch/PrimarySearch_ki.jsp?energyterm=kJ/mole&tag=pol&polymerid=5809&target=ALK+tyrosine+kinase+receptor&column=ki&startPg=0&Increment=50&submit=Search

> <Link to Ligand-Target Pair in BindingDB>
http://www.bindingdb.org/jsp/dbsearch/PrimarySearch_ki.jsp?energyterm=kJ/mole&tag=r21&monomerid=291994&enzyme=ALK+tyrosine+kinase+receptor&column=ki&startPg=0&Increment=50&submit=Search

> <Ligand HET ID in PDB>


> <PDB ID(s) for Ligand-Target Complex>


> <PubChem CID>
134449975

> <PubChem SID>
381612293

> <ChEBI ID of Ligand>


> <ChEMBL ID of Ligand>


> <DrugBank ID of Ligand>


> <IUPHAR_GRAC ID of Ligand>


> <KEGG ID of Ligand>


> <ZINC ID of Ligand>


> <Number of Protein Chains in Target (>1 implies a multichain complex)>
1

> <BindingDB Target Chain Sequence>
MGAIGLLWLLPLLLSTAAVGSGMGTGQRAGSPAAGPPLQPREPLSYSRLQRKSLAVDFVVPSLFRVYARDLLLPPSSSELKAGRPEARGSLALDCAPLLRLLGPAPGVSWTAGSPAPAEARTLSRVLKGGSVRKLRRAKQLVLELGEEAILEGCVGPPGEAAVGLLQFNLSELFSWWIRQGEGRLRIRLMPEKKASEVGREGRLSAAIRASQPRLLFQIFGTGHSSLESPTNMPSPSPDYFTWNLTWIMKDSFPFLSHRSRYGLECSFDFPCELEYSPPLHDLRNQSWSWRRIPSEEASQMDLLDGPGAERSKEMPRGSFLLLNTSADSKHTILSPWMRSSSEHCTLAVSVHRHLQPSGRYIAQLLPHNEAAREILLMPTPGKHGWTVLQGRIGRPDNPFRVALEYISSGNRSLSAVDFFALKNCSEGTSPGSKMALQSSFTCWNGTVLQLGQACDFHQDCAQGEDESQMCRKLPVGFYCNFEDGFCGWTQGTLSPHTPQWQVRTLKDARFQDHQDHALLLSTTDVPASESATVTSATFPAPIKSSPCELRMSWLIRGVLRGNVSLVLVENKTGKEQGRMVWHVAAYEGLSLWQWMVLPLLDVSDRFWLQMVAWWGQGSRAIVAFDNISISLDCYLTISGEDKILQNTAPKSRNLFERNPNKELKPGENSPRQTPIFDPTVHWLFTTCGASGPHGPTQAQCNNAYQNSNLSVEVGSEGPLKGIQIWKVPATDTYSISGYGAAGGKGGKNTMMRSHGVSVLGIFNLEKDDMLYILVGQQGEDACPSTNQLIQKVCIGENNVIEEEIRVNRSVHEWAGGGGGGGGATYVFKMKDGVPVPLIIAAGGGGRAYGAKTDTFHPERLENNSSVLGLNGNSGAAGGGGGWNDNTSLLWAGKSLQEGATGGHSCPQAMKKWGWETRGGFGGGGGGCSSGGGGGGYIGGNAASNNDPEMDGEDGVSFISPLGILYTPALKVMEGHGEVNIKHYLNCSHCEVDECHMDPESHKVICFCDHGTVLAEDGVSCIVSPTPEPHLPLSLILSVVTSALVAALVLAFSGIMIVYRRKHQELQAMQMELQSPEYKLSKLRTSTIMTDYNPNYCFAGKTSSISDLKEVPRKNITLIRGLGHGAFGEVYEGQVSGMPNDPSPLQVAVKTLPEVCSEQDELDFLMEALIISKFNHQNIVRCIGVSLQSLPRFILLELMAGGDLKSFLRETRPRPSQPSSLAMLDLLHVARDIACGCQYLEENHFIHRDIAARNCLLTCPGPGRVAKIGDFGMARDIYRASYYRKGGCAMLPVKWMPPEAFMEGIFTSKTDTWSFGVLLWEIFSLGYMPYPSKSNQEVLEFVTSGGRMDPPKNCPGPVYRIMTQCWQHQPEDRPNFAIILERIEYCTQDPDVINTALPIEYGPLVEEEEKVPVRPKDPEGVPPLLVSQQAKREEERSPAAPPPLPTTSSGKAAKKPTAAEISVRVPRGPAVEGGHVNMAFSQSNPPSELHKVHGSRNKPTSLWNPTYGSWFTEKPTKKNNPIAKKEPHDRGNLGLEGSCTVPPNVATGRLPGASLLLEPSSLTANMKEVPLFRLRHFPCGNVNYGYQQQGLPLEAATAPGAGHYEDTILKSKNSMNQPGP

> <PDB ID(s) of Target Chain>
2XB7,2XBA,3AOX,5FTO,5FTQ,6E0R,6EBW,6EDL,6MX8

> <UniProt (SwissProt) Recommended Name of Target Chain>
ALK tyrosine kinase receptor

> <UniProt (SwissProt) Entry Name of Target Chain>
ALK_HUMAN

> <UniProt (SwissProt) Primary ID of Target Chain>
Q9UM73

> <UniProt (SwissProt) Secondary ID(s) of Target Chain>
Q4ZFX9,Q53QQ6,Q53RZ4,Q59FI3,Q9Y4K6

> <UniProt (SwissProt) Alternative ID(s) of Target Chain>


> <UniProt (TrEMBL) Submitted Name of Target Chain>


> <UniProt (TrEMBL) Entry Name of Target Chain>


> <UniProt (TrEMBL) Primary ID of Target Chain>


> <UniProt (TrEMBL) Secondary ID(s) of Target Chain>


> <UniProt (TrEMBL) Alternative ID(s) of Target Chain>


$$$$
00198001.cdx
  Mrv0541 02211919242D          

 37 39  0  0  0  0            999 V2000
   -2.1434    0.0854    0.0000 C   0  0  0  0  0  0  0  0  0  0  0  0
   -2.8579   -0.3271    0.0000 C   0  0  0  0  0  0  0  0  0  0  0  0
   -2.8579   -1.1521    0.0000 C   0  0  0  0  0  0  0  0  0  0  0  0
   -2.1434   -1.5646    0.0000 N   0  0  0  0  0  0  0  0  0  0  0  0
   -1.4289   -1.1521    0.0000 C   0  0  0  0  0  0  0  0  0  0  0  0
   -1.4289   -0.3271    0.0000 N   0  0  0  0  0  0  0  0  0  0  0  0
   -3.5724    0.0854    0.0000 Cl  0  0  0  0  0  0  0  0  0  0  0  0
   -0.7145   -1.5646    0.0000 N   0  0  0  0  0  0  0  0  0  0  0  0
   -1.4289    2.1479    0.0000 C   0  0  0  0  0  0  0  0  0  0  0  0
   -1.4289    1.3229    0.0000 C   0  0  0  0  0  0  0  0  0  0  0  0
   -0.7145    0.9104    0.0000 C   0  0  0  0  0  0  0  0  0  0  0  0
    0.0000    1.3229    0.0000 C   0  0  0  0  0  0  0  0  0  0  0  0
    0.0000    2.1479    0.0000 C   0  0  0  0  0  0  0  0  0  0  0  0
   -0.7145    2.5604    0.0000 C   0  0  0  0  0  0  0  0  0  0  0  0
   -2.1434    2.5604    0.0000 S   0  0  0  0  0  0  0  0  0  0  0  0
   -2.8579    2.1479    0.0000 C   0  0  0  0  0  0  0  0  0  0  0  0
   -2.1434    0.9104    0.0000 N   0  0  0  0  0  0  0  0  0  0  0  0
    0.0000   -1.1521    0.0000 C   0  0  0  0  0  0  0  0  0  0  0  0
    0.0000   -0.3271    0.0000 C   0  0  0  0  0  0  0  0  0  0  0  0
    0.7145   -1.5646    0.0000 C   0  0  0  0  0  0  0  0  0  0  0  0
    1.4289   -1.1521    0.0000 C   0  0  0  0  0  0  0  0  0  0  0  0
    1.4289   -0.3271    0.0000 C   0  0  0  0  0  0  0  0  0  0  0  0
    0.7145    0.0854    0.0000 C   0  0  0  0  0  0  0  0  0  0  0  0
    0.7145    0.9104    0.0000 C   0  0  0  0  0  0  0  0  0  0  0  0
    0.7145   -2.3896    0.0000 O   0  0  0  0  0  0  0  0  0  0  0  0
    1.2978   -2.9729    0.0000 C   0  0  0  0  0  0  0  0  0  0  0  0
    2.1434    0.0854    0.0000 C   0  0  0  0  0  0  0  0  0  0  0  0
   -3.5724    2.5604    0.0000 C   0  0  0  0  0  0  0  0  0  0  0  0
   -2.8579    1.3229    0.0000 C   0  0  0  0  0  0  0  0  0  0  0  0
   -2.8579    2.9729    0.0000 O   0  0  0  0  0  0  0  0  0  0  0  0
   -1.4289    2.9729    0.0000 O   0  0  0  0  0  0  0  0  0  0  0  0
    2.1434    0.9104    0.0000 C   0  0  0  0  0  0  0  0  0  0  0  0
    2.8579    1.3229    0.0000 N   0  0  0  0  0  0  0  0  0  0  0  0
    2.8579    2.1479    0.0000 C   0  0  0  0  0  0  0  0  0  0  0  0
    3.5724    0.9104    0.0000 C   0  0  0  0  0  0  0  0  0  0  0  0
    2.9403    0.2990    0.0000 C   0  0  0  0  0  0  0  0  0  0  0  0
    2.5559   -0.6290    0.0000 C   0  0  0  0  0  0  0  0  0  0  0  0
 17  1  1  0  0  0  0
  1  2  4  0  0  0  0
  2  3  4  0  0  0  0
  3  4  4  0  0  0  0
  4  5  4  0  0  0  0
  5  6  4  0  0  0  0
  6  1  4  0  0  0  0
  2  7  1  0  0  0  0
  5  8  1  0  0  0  0
  9 10  4  0  0  0  0
 10 11  4  0  0  0  0
 11 12  4  0  0  0  0
 12 13  4  0  0  0  0
 13 14  4  0  0  0  0
 14  9  4  0  0  0  0
  9 15  1  0  0  0  0
 15 16  1  0  0  0  0
 10 17  1  0  0  0  0
  8 18  1  0  0  0  0
 18 19  4  0  0  0  0
 18 20  4  0  0  0  0
 20 21  4  0  0  0  0
 21 22  4  0  0  0  0
 22 23  4  0  0  0  0
 23 19  4  0  0  0  0
 23 24  1  0  0  0  0
 20 25  1  0  0  0  0
 25 26  1  0  0  0  0
 22 27  1  0  0  0  0
 16 28  1  0  0  0  0
 16 29  1  0  0  0  0
 15 30  2  0  0  0  0
 15 31  2  0  0  0  0
 27 32  1  0  0  0  0
 32 33  1  0  0  0  0
 33 34  1  0  0  0  0
 33 35  1  0  0  0  0
 27 36  1  0  0  0  0
 27 37  1  0  0  0  0
M  END
> <From>
www.bindingDB.org

> <BindingDB Reactant_set_id>
556973

> <Ligand InChI>
InChI=1S/C27H36ClN5O3S/c1-17(2)37(34,35)24-12-10-9-11-21(24)30-25-20(28)15-29-26(32-25)31-22-13-18(3)19(14-23(22)36-8)27(4,5)16-33(6)7/h9-15,17H,16H2,1-8H3,(H2,29,30,31,32)

> <Ligand InChI Key>
JTUQGTNWWPMBKS-UHFFFAOYSA-N

> <BindingDB MonomerID>
291995

> <BindingDB Ligand Name>
US10100019, Example 65

> <Target Name Assigned by Curator or DataSource>
ALK tyrosine kinase receptor

> <Target Source Organism According to Curator or DataSource>
Homo sapiens

> <Ki (nM)>


> <IC50 (nM)>
 2.20

> <Kd (nM)>


> <EC50 (nM)>


> <kon (M-1-s-1)>


> <koff (s-1)>


> <pH>


> <Temp C>
25.00

> <Curation/DataSource>
US Patent

> <Article DOI>
10.1016/j.bmcl.2006.04.076

> <PMID>


> <PubChem AID>


> <Patent Number>
US10100019

> <Authors>
Kim, P; Kim, HR; Cho, SY; Ha, JD; Jung, HJ; Yun, CS; Hwang, JY; Park, CH; Lee, CO; Ahn, S; Chae, CH

> <Institution>
Korea Research Institute of Chemical Technology

> <Link to Ligand in BindingDB>
http://www.bindingdb.org/bind/chemsearch/marvin/MolStructure.jsp?monomerid=291995

> <Link to Ligand-Target Pair in BindingDB>
http://www.bindingdb.org/jsp/dbsearch/PrimarySearch_ki.jsp?energyterm=kJ/mole&tag=pol&polymerid=5809&target=ALK+tyrosine+kinase+receptor&column=ki&startPg=0&Increment=50&submit=Search

> <Link to Ligand-Target Pair in BindingDB>
http://www.bindingdb.org/jsp/dbsearch/PrimarySearch_ki.jsp?energyterm=kJ/mole&tag=r21&monomerid=291995&enzyme=ALK+tyrosine+kinase+receptor&column=ki&startPg=0&Increment=50&submit=Search

> <Ligand HET ID in PDB>


> <PDB ID(s) for Ligand-Target Complex>


> <PubChem CID>
134449977

> <PubChem SID>
381612294

> <ChEBI ID of Ligand>


> <ChEMBL ID of Ligand>


> <DrugBank ID of Ligand>


> <IUPHAR_GRAC ID of Ligand>


> <KEGG ID of Ligand>


> <ZINC ID of Ligand>


> <Number of Protein Chains in Target (>1 implies a multichain complex)>
1

> <BindingDB Target Chain Sequence>
MGAIGLLWLLPLLLSTAAVGSGMGTGQRAGSPAAGPPLQPREPLSYSRLQRKSLAVDFVVPSLFRVYARDLLLPPSSSELKAGRPEARGSLALDCAPLLRLLGPAPGVSWTAGSPAPAEARTLSRVLKGGSVRKLRRAKQLVLELGEEAILEGCVGPPGEAAVGLLQFNLSELFSWWIRQGEGRLRIRLMPEKKASEVGREGRLSAAIRASQPRLLFQIFGTGHSSLESPTNMPSPSPDYFTWNLTWIMKDSFPFLSHRSRYGLECSFDFPCELEYSPPLHDLRNQSWSWRRIPSEEASQMDLLDGPGAERSKEMPRGSFLLLNTSADSKHTILSPWMRSSSEHCTLAVSVHRHLQPSGRYIAQLLPHNEAAREILLMPTPGKHGWTVLQGRIGRPDNPFRVALEYISSGNRSLSAVDFFALKNCSEGTSPGSKMALQSSFTCWNGTVLQLGQACDFHQDCAQGEDESQMCRKLPVGFYCNFEDGFCGWTQGTLSPHTPQWQVRTLKDARFQDHQDHALLLSTTDVPASESATVTSATFPAPIKSSPCELRMSWLIRGVLRGNVSLVLVENKTGKEQGRMVWHVAAYEGLSLWQWMVLPLLDVSDRFWLQMVAWWGQGSRAIVAFDNISISLDCYLTISGEDKILQNTAPKSRNLFERNPNKELKPGENSPRQTPIFDPTVHWLFTTCGASGPHGPTQAQCNNAYQNSNLSVEVGSEGPLKGIQIWKVPATDTYSISGYGAAGGKGGKNTMMRSHGVSVLGIFNLEKDDMLYILVGQQGEDACPSTNQLIQKVCIGENNVIEEEIRVNRSVHEWAGGGGGGGGATYVFKMKDGVPVPLIIAAGGGGRAYGAKTDTFHPERLENNSSVLGLNGNSGAAGGGGGWNDNTSLLWAGKSLQEGATGGHSCPQAMKKWGWETRGGFGGGGGGCSSGGGGGGYIGGNAASNNDPEMDGEDGVSFISPLGILYTPALKVMEGHGEVNIKHYLNCSHCEVDECHMDPESHKVICFCDHGTVLAEDGVSCIVSPTPEPHLPLSLILSVVTSALVAALVLAFSGIMIVYRRKHQELQAMQMELQSPEYKLSKLRTSTIMTDYNPNYCFAGKTSSISDLKEVPRKNITLIRGLGHGAFGEVYEGQVSGMPNDPSPLQVAVKTLPEVCSEQDELDFLMEALIISKFNHQNIVRCIGVSLQSLPRFILLELMAGGDLKSFLRETRPRPSQPSSLAMLDLLHVARDIACGCQYLEENHFIHRDIAARNCLLTCPGPGRVAKIGDFGMARDIYRASYYRKGGCAMLPVKWMPPEAFMEGIFTSKTDTWSFGVLLWEIFSLGYMPYPSKSNQEVLEFVTSGGRMDPPKNCPGPVYRIMTQCWQHQPEDRPNFAIILERIEYCTQDPDVINTALPIEYGPLVEEEEKVPVRPKDPEGVPPLLVSQQAKREEERSPAAPPPLPTTSSGKAAKKPTAAEISVRVPRGPAVEGGHVNMAFSQSNPPSELHKVHGSRNKPTSLWNPTYGSWFTEKPTKKNNPIAKKEPHDRGNLGLEGSCTVPPNVATGRLPGASLLLEPSSLTANMKEVPLFRLRHFPCGNVNYGYQQQGLPLEAATAPGAGHYEDTILKSKNSMNQPGP

> <PDB ID(s) of Target Chain>
2XB7,2XBA,3AOX,5FTO,5FTQ,6E0R,6EBW,6EDL,6MX8

> <UniProt (SwissProt) Recommended Name of Target Chain>
ALK tyrosine kinase receptor

> <UniProt (SwissProt) Entry Name of Target Chain>
ALK_HUMAN

> <UniProt (SwissProt) Primary ID of Target Chain>
Q9UM73

> <UniProt (SwissProt) Secondary ID(s) of Target Chain>
Q4ZFX9,Q53QQ6,Q53RZ4,Q59FI3,Q9Y4K6

> <UniProt (SwissProt) Alternative ID(s) of Target Chain>


> <UniProt (TrEMBL) Submitted Name of Target Chain>


> <UniProt (TrEMBL) Entry Name of Target Chain>


> <UniProt (TrEMBL) Primary ID of Target Chain>


> <UniProt (TrEMBL) Secondary ID(s) of Target Chain>


> <UniProt (TrEMBL) Alternative ID(s) of Target Chain>


$$$$
00204001.cdx
  Mrv0541 02211919242D          

 36 38  0  0  0  0            999 V2000
   -1.8414    0.0854    0.0000 C   0  0  0  0  0  0  0  0  0  0  0  0
   -2.5559   -0.3271    0.0000 C   0  0  0  0  0  0  0  0  0  0  0  0
   -2.5559   -1.1521    0.0000 C   0  0  0  0  0  0  0  0  0  0  0  0
   -1.8414   -1.5646    0.0000 N   0  0  0  0  0  0  0  0  0  0  0  0
   -1.1270   -1.1521    0.0000 C   0  0  0  0  0  0  0  0  0  0  0  0
   -1.1270   -0.3271    0.0000 N   0  0  0  0  0  0  0  0  0  0  0  0
   -3.2704    0.0854    0.0000 Cl  0  0  0  0  0  0  0  0  0  0  0  0
   -0.4125   -1.5646    0.0000 N   0  0  0  0  0  0  0  0  0  0  0  0
   -1.1270    2.1479    0.0000 C   0  0  0  0  0  0  0  0  0  0  0  0
   -1.1270    1.3229    0.0000 C   0  0  0  0  0  0  0  0  0  0  0  0
   -0.4125    0.9104    0.0000 C   0  0  0  0  0  0  0  0  0  0  0  0
    0.3020    1.3229    0.0000 C   0  0  0  0  0  0  0  0  0  0  0  0
    0.3020    2.1479    0.0000 C   0  0  0  0  0  0  0  0  0  0  0  0
   -0.4125    2.5604    0.0000 C   0  0  0  0  0  0  0  0  0  0  0  0
   -1.8414    2.5604    0.0000 S   0  0  0  0  0  0  0  0  0  0  0  0
   -2.5559    2.1479    0.0000 C   0  0  0  0  0  0  0  0  0  0  0  0
   -1.8414    0.9104    0.0000 N   0  0  0  0  0  0  0  0  0  0  0  0
    0.3020   -1.1521    0.0000 C   0  0  0  0  0  0  0  0  0  0  0  0
    0.3020   -0.3271    0.0000 C   0  0  0  0  0  0  0  0  0  0  0  0
    1.0164   -1.5646    0.0000 C   0  0  0  0  0  0  0  0  0  0  0  0
    1.7309   -1.1521    0.0000 C   0  0  0  0  0  0  0  0  0  0  0  0
    1.7309   -0.3271    0.0000 C   0  0  0  0  0  0  0  0  0  0  0  0
    1.0164    0.0854    0.0000 C   0  0  0  0  0  0  0  0  0  0  0  0
    1.0164    0.9104    0.0000 C   0  0  0  0  0  0  0  0  0  0  0  0
    1.0164   -2.3896    0.0000 O   0  0  0  0  0  0  0  0  0  0  0  0
    1.5998   -2.9729    0.0000 C   0  0  0  0  0  0  0  0  0  0  0  0
    2.4454    0.0854    0.0000 C   0  0  0  0  0  0  0  0  0  0  0  0
   -3.2704    2.5604    0.0000 C   0  0  0  0  0  0  0  0  0  0  0  0
   -2.5559    1.3229    0.0000 C   0  0  0  0  0  0  0  0  0  0  0  0
   -2.5559    2.9729    0.0000 O   0  0  0  0  0  0  0  0  0  0  0  0
   -1.1270    2.9729    0.0000 O   0  0  0  0  0  0  0  0  0  0  0  0
    2.4454    0.9104    0.0000 N   0  0  0  0  0  0  0  0  0  0  0  0
    3.2704    0.0854    0.0000 C   0  0  0  0  0  0  0  0  0  0  0  0
    2.8579   -0.6290    0.0000 C   0  0  0  0  0  0  0  0  0  0  0  0
    3.0287    1.4938    0.0000 C   0  0  0  0  0  0  0  0  0  0  0  0
    2.0329    1.6249    0.0000 C   0  0  0  0  0  0  0  0  0  0  0  0
 17  1  1  0  0  0  0
  1  2  4  0  0  0  0
  2  3  4  0  0  0  0
  3  4  4  0  0  0  0
  4  5  4  0  0  0  0
  5  6  4  0  0  0  0
  6  1  4  0  0  0  0
  2  7  1  0  0  0  0
  5  8  1  0  0  0  0
  9 10  4  0  0  0  0
 10 11  4  0  0  0  0
 11 12  4  0  0  0  0
 12 13  4  0  0  0  0
 13 14  4  0  0  0  0
 14  9  4  0  0  0  0
  9 15  1  0  0  0  0
 15 16  1  0  0  0  0
 10 17  1  0  0  0  0
  8 18  1  0  0  0  0
 18 19  4  0  0  0  0
 18 20  4  0  0  0  0
 20 21  4  0  0  0  0
 21 22  4  0  0  0  0
 22 23  4  0  0  0  0
 23 19  4  0  0  0  0
 23 24  1  0  0  0  0
 20 25  1  0  0  0  0
 25 26  1  0  0  0  0
 22 27  1  0  0  0  0
 16 28  1  0  0  0  0
 16 29  1  0  0  0  0
 15 30  2  0  0  0  0
 15 31  2  0  0  0  0
 27 32  1  0  0  0  0
 27 33  1  0  0  0  0
 27 34  1  0  0  0  0
 32 35  1  0  0  0  0
 32 36  1  0  0  0  0
M  END
> <From>
www.bindingDB.org

> <BindingDB Reactant_set_id>
556974

> <Ligand InChI>
InChI=1S/C26H34ClN5O3S/c1-16(2)36(33,34)23-12-10-9-11-20(23)29-24-19(27)15-28-25(31-24)30-21-13-17(3)18(14-22(21)35-8)26(4,5)32(6)7/h9-16H,1-8H3,(H2,28,29,30,31)

> <Ligand InChI Key>
RWASATDZTQIHPA-UHFFFAOYSA-N

> <BindingDB MonomerID>
291996

> <BindingDB Ligand Name>
US10100019, Example 66

> <Target Name Assigned by Curator or DataSource>
ALK tyrosine kinase receptor

> <Target Source Organism According to Curator or DataSource>
Homo sapiens

> <Ki (nM)>


> <IC50 (nM)>
 2.80

> <Kd (nM)>


> <EC50 (nM)>


> <kon (M-1-s-1)>


> <koff (s-1)>


> <pH>


> <Temp C>
25.00

> <Curation/DataSource>
US Patent

> <Article DOI>
10.1016/j.bmcl.2006.04.076

> <PMID>


> <PubChem AID>


> <Patent Number>
US10100019

> <Authors>
Kim, P; Kim, HR; Cho, SY; Ha, JD; Jung, HJ; Yun, CS; Hwang, JY; Park, CH; Lee, CO; Ahn, S; Chae, CH

> <Institution>
Korea Research Institute of Chemical Technology

> <Link to Ligand in BindingDB>
http://www.bindingdb.org/bind/chemsearch/marvin/MolStructure.jsp?monomerid=291996

> <Link to Ligand-Target Pair in BindingDB>
http://www.bindingdb.org/jsp/dbsearch/PrimarySearch_ki.jsp?energyterm=kJ/mole&tag=pol&polymerid=5809&target=ALK+tyrosine+kinase+receptor&column=ki&startPg=0&Increment=50&submit=Search

> <Link to Ligand-Target Pair in BindingDB>
http://www.bindingdb.org/jsp/dbsearch/PrimarySearch_ki.jsp?energyterm=kJ/mole&tag=r21&monomerid=291996&enzyme=ALK+tyrosine+kinase+receptor&column=ki&startPg=0&Increment=50&submit=Search

> <Ligand HET ID in PDB>


> <PDB ID(s) for Ligand-Target Complex>


> <PubChem CID>
134449978

> <PubChem SID>
381612295

> <ChEBI ID of Ligand>


> <ChEMBL ID of Ligand>


> <DrugBank ID of Ligand>


> <IUPHAR_GRAC ID of Ligand>


> <KEGG ID of Ligand>


> <ZINC ID of Ligand>


> <Number of Protein Chains in Target (>1 implies a multichain complex)>
1

> <BindingDB Target Chain Sequence>
MGAIGLLWLLPLLLSTAAVGSGMGTGQRAGSPAAGPPLQPREPLSYSRLQRKSLAVDFVVPSLFRVYARDLLLPPSSSELKAGRPEARGSLALDCAPLLRLLGPAPGVSWTAGSPAPAEARTLSRVLKGGSVRKLRRAKQLVLELGEEAILEGCVGPPGEAAVGLLQFNLSELFSWWIRQGEGRLRIRLMPEKKASEVGREGRLSAAIRASQPRLLFQIFGTGHSSLESPTNMPSPSPDYFTWNLTWIMKDSFPFLSHRSRYGLECSFDFPCELEYSPPLHDLRNQSWSWRRIPSEEASQMDLLDGPGAERSKEMPRGSFLLLNTSADSKHTILSPWMRSSSEHCTLAVSVHRHLQPSGRYIAQLLPHNEAAREILLMPTPGKHGWTVLQGRIGRPDNPFRVALEYISSGNRSLSAVDFFALKNCSEGTSPGSKMALQSSFTCWNGTVLQLGQACDFHQDCAQGEDESQMCRKLPVGFYCNFEDGFCGWTQGTLSPHTPQWQVRTLKDARFQDHQDHALLLSTTDVPASESATVTSATFPAPIKSSPCELRMSWLIRGVLRGNVSLVLVENKTGKEQGRMVWHVAAYEGLSLWQWMVLPLLDVSDRFWLQMVAWWGQGSRAIVAFDNISISLDCYLTISGEDKILQNTAPKSRNLFERNPNKELKPGENSPRQTPIFDPTVHWLFTTCGASGPHGPTQAQCNNAYQNSNLSVEVGSEGPLKGIQIWKVPATDTYSISGYGAAGGKGGKNTMMRSHGVSVLGIFNLEKDDMLYILVGQQGEDACPSTNQLIQKVCIGENNVIEEEIRVNRSVHEWAGGGGGGGGATYVFKMKDGVPVPLIIAAGGGGRAYGAKTDTFHPERLENNSSVLGLNGNSGAAGGGGGWNDNTSLLWAGKSLQEGATGGHSCPQAMKKWGWETRGGFGGGGGGCSSGGGGGGYIGGNAASNNDPEMDGEDGVSFISPLGILYTPALKVMEGHGEVNIKHYLNCSHCEVDECHMDPESHKVICFCDHGTVLAEDGVSCIVSPTPEPHLPLSLILSVVTSALVAALVLAFSGIMIVYRRKHQELQAMQMELQSPEYKLSKLRTSTIMTDYNPNYCFAGKTSSISDLKEVPRKNITLIRGLGHGAFGEVYEGQVSGMPNDPSPLQVAVKTLPEVCSEQDELDFLMEALIISKFNHQNIVRCIGVSLQSLPRFILLELMAGGDLKSFLRETRPRPSQPSSLAMLDLLHVARDIACGCQYLEENHFIHRDIAARNCLLTCPGPGRVAKIGDFGMARDIYRASYYRKGGCAMLPVKWMPPEAFMEGIFTSKTDTWSFGVLLWEIFSLGYMPYPSKSNQEVLEFVTSGGRMDPPKNCPGPVYRIMTQCWQHQPEDRPNFAIILERIEYCTQDPDVINTALPIEYGPLVEEEEKVPVRPKDPEGVPPLLVSQQAKREEERSPAAPPPLPTTSSGKAAKKPTAAEISVRVPRGPAVEGGHVNMAFSQSNPPSELHKVHGSRNKPTSLWNPTYGSWFTEKPTKKNNPIAKKEPHDRGNLGLEGSCTVPPNVATGRLPGASLLLEPSSLTANMKEVPLFRLRHFPCGNVNYGYQQQGLPLEAATAPGAGHYEDTILKSKNSMNQPGP

> <PDB ID(s) of Target Chain>
2XB7,2XBA,3AOX,5FTO,5FTQ,6E0R,6EBW,6EDL,6MX8

> <UniProt (SwissProt) Recommended Name of Target Chain>
ALK tyrosine kinase receptor

> <UniProt (SwissProt) Entry Name of Target Chain>
ALK_HUMAN

> <UniProt (SwissProt) Primary ID of Target Chain>
Q9UM73

> <UniProt (SwissProt) Secondary ID(s) of Target Chain>
Q4ZFX9,Q53QQ6,Q53RZ4,Q59FI3,Q9Y4K6

> <UniProt (SwissProt) Alternative ID(s) of Target Chain>


> <UniProt (TrEMBL) Submitted Name of Target Chain>


> <UniProt (TrEMBL) Entry Name of Target Chain>


> <UniProt (TrEMBL) Primary ID of Target Chain>


> <UniProt (TrEMBL) Secondary ID(s) of Target Chain>


> <UniProt (TrEMBL) Alternative ID(s) of Target Chain>


$$$$
00205001.cdx
  Mrv0541 02211919242D          

 32 34  0  0  0  0            999 V2000
   -1.5357    0.0854    0.0000 C   0  0  0  0  0  0  0  0  0  0  0  0
   -2.2502   -0.3271    0.0000 C   0  0  0  0  0  0  0  0  0  0  0  0
   -2.2502   -1.1521    0.0000 C   0  0  0  0  0  0  0  0  0  0  0  0
   -1.5357   -1.5646    0.0000 N   0  0  0  0  0  0  0  0  0  0  0  0
   -0.8212   -1.1521    0.0000 C   0  0  0  0  0  0  0  0  0  0  0  0
   -0.8212   -0.3271    0.0000 N   0  0  0  0  0  0  0  0  0  0  0  0
   -2.9646    0.0854    0.0000 Cl  0  0  0  0  0  0  0  0  0  0  0  0
   -0.1068   -1.5646    0.0000 N   0  0  0  0  0  0  0  0  0  0  0  0
   -0.8212    2.1479    0.0000 C   0  0  0  0  0  0  0  0  0  0  0  0
   -0.8212    1.3229    0.0000 C   0  0  0  0  0  0  0  0  0  0  0  0
   -0.1068    0.9104    0.0000 C   0  0  0  0  0  0  0  0  0  0  0  0
    0.6077    1.3229    0.0000 C   0  0  0  0  0  0  0  0  0  0  0  0
    0.6077    2.1479    0.0000 C   0  0  0  0  0  0  0  0  0  0  0  0
   -0.1068    2.5604    0.0000 C   0  0  0  0  0  0  0  0  0  0  0  0
   -1.5357    2.5604    0.0000 S   0  0  0  0  0  0  0  0  0  0  0  0
   -2.2502    2.1479    0.0000 C   0  0  0  0  0  0  0  0  0  0  0  0
   -1.5357    0.9104    0.0000 N   0  0  0  0  0  0  0  0  0  0  0  0
    0.6077   -1.1521    0.0000 C   0  0  0  0  0  0  0  0  0  0  0  0
    0.6077   -0.3271    0.0000 C   0  0  0  0  0  0  0  0  0  0  0  0
    1.3222   -1.5646    0.0000 C   0  0  0  0  0  0  0  0  0  0  0  0
    2.0367   -1.1521    0.0000 C   0  0  0  0  0  0  0  0  0  0  0  0
    2.0367   -0.3271    0.0000 C   0  0  0  0  0  0  0  0  0  0  0  0
    1.3222    0.0854    0.0000 C   0  0  0  0  0  0  0  0  0  0  0  0
    1.3222    0.9104    0.0000 C   0  0  0  0  0  0  0  0  0  0  0  0
    1.3222   -2.3896    0.0000 O   0  0  0  0  0  0  0  0  0  0  0  0
    1.9055   -2.9729    0.0000 C   0  0  0  0  0  0  0  0  0  0  0  0
    2.7511    0.0854    0.0000 C   0  0  0  0  0  0  0  0  0  0  0  0
   -2.9646    2.5604    0.0000 C   0  0  0  0  0  0  0  0  0  0  0  0
   -2.2502    1.3229    0.0000 C   0  0  0  0  0  0  0  0  0  0  0  0
   -2.2502    2.9729    0.0000 O   0  0  0  0  0  0  0  0  0  0  0  0
   -0.8212    2.9729    0.0000 O   0  0  0  0  0  0  0  0  0  0  0  0
    2.9646    0.8823    0.0000 N   0  0  0  0  0  0  0  0  0  0  0  0
 17  1  1  0  0  0  0
  1  2  4  0  0  0  0
  2  3  4  0  0  0  0
  3  4  4  0  0  0  0
  4  5  4  0  0  0  0
  5  6  4  0  0  0  0
  6  1  4  0  0  0  0
  2  7  1  0  0  0  0
  5  8  1  0  0  0  0
  9 10  4  0  0  0  0
 10 11  4  0  0  0  0
 11 12  4  0  0  0  0
 12 13  4  0  0  0  0
 13 14  4  0  0  0  0
 14  9  4  0  0  0  0
  9 15  1  0  0  0  0
 15 16  1  0  0  0  0
 10 17  1  0  0  0  0
  8 18  1  0  0  0  0
 18 19  4  0  0  0  0
 18 20  4  0  0  0  0
 20 21  4  0  0  0  0
 21 22  4  0  0  0  0
 22 23  4  0  0  0  0
 23 19  4  0  0  0  0
 23 24  1  0  0  0  0
 20 25  1  0  0  0  0
 25 26  1  0  0  0  0
 22 27  1  0  0  0  0
 16 28  1  0  0  0  0
 16 29  1  0  0  0  0
 15 30  2  0  0  0  0
 15 31  2  0  0  0  0
 27 32  1  0  0  0  0
M  END
> <From>
www.bindingDB.org

> <BindingDB Reactant_set_id>
556975

> <Ligand InChI>
InChI=1S/C22H26ClN5O3S/c1-13(2)32(29,30)20-8-6-5-7-17(20)26-21-16(23)12-25-22(28-21)27-18-9-14(3)15(11-24)10-19(18)31-4/h5-10,12-13H,11,24H2,1-4H3,(H2,25,26,27,28)

> <Ligand InChI Key>
TWJHARJINSWCDD-UHFFFAOYSA-N

> <BindingDB MonomerID>
291997

> <BindingDB Ligand Name>
US10100019, Example 68

> <Target Name Assigned by Curator or DataSource>
ALK tyrosine kinase receptor

> <Target Source Organism According to Curator or DataSource>
Homo sapiens

> <Ki (nM)>


> <IC50 (nM)>
 1.93

> <Kd (nM)>


> <EC50 (nM)>


> <kon (M-1-s-1)>


> <koff (s-1)>


> <pH>


> <Temp C>
25.00

> <Curation/DataSource>
US Patent

> <Article DOI>
10.1016/j.bmcl.2006.04.076

> <PMID>


> <PubChem AID>


> <Patent Number>
US10100019

> <Authors>
Kim, P; Kim, HR; Cho, SY; Ha, JD; Jung, HJ; Yun, CS; Hwang, JY; Park, CH; Lee, CO; Ahn, S; Chae, CH

> <Institution>
Korea Research Institute of Chemical Technology

> <Link to Ligand in BindingDB>
http://www.bindingdb.org/bind/chemsearch/marvin/MolStructure.jsp?monomerid=291997

> <Link to Ligand-Target Pair in BindingDB>
http://www.bindingdb.org/jsp/dbsearch/PrimarySearch_ki.jsp?energyterm=kJ/mole&tag=pol&polymerid=5809&target=ALK+tyrosine+kinase+receptor&column=ki&startPg=0&Increment=50&submit=Search

> <Link to Ligand-Target Pair in BindingDB>
http://www.bindingdb.org/jsp/dbsearch/PrimarySearch_ki.jsp?energyterm=kJ/mole&tag=r21&monomerid=291997&enzyme=ALK+tyrosine+kinase+receptor&column=ki&startPg=0&Increment=50&submit=Search

> <Ligand HET ID in PDB>


> <PDB ID(s) for Ligand-Target Complex>


> <PubChem CID>
134449980

> <PubChem SID>
381612296

> <ChEBI ID of Ligand>


> <ChEMBL ID of Ligand>


> <DrugBank ID of Ligand>


> <IUPHAR_GRAC ID of Ligand>


> <KEGG ID of Ligand>


> <ZINC ID of Ligand>


> <Number of Protein Chains in Target (>1 implies a multichain complex)>
1

> <BindingDB Target Chain Sequence>
MGAIGLLWLLPLLLSTAAVGSGMGTGQRAGSPAAGPPLQPREPLSYSRLQRKSLAVDFVVPSLFRVYARDLLLPPSSSELKAGRPEARGSLALDCAPLLRLLGPAPGVSWTAGSPAPAEARTLSRVLKGGSVRKLRRAKQLVLELGEEAILEGCVGPPGEAAVGLLQFNLSELFSWWIRQGEGRLRIRLMPEKKASEVGREGRLSAAIRASQPRLLFQIFGTGHSSLESPTNMPSPSPDYFTWNLTWIMKDSFPFLSHRSRYGLECSFDFPCELEYSPPLHDLRNQSWSWRRIPSEEASQMDLLDGPGAERSKEMPRGSFLLLNTSADSKHTILSPWMRSSSEHCTLAVSVHRHLQPSGRYIAQLLPHNEAAREILLMPTPGKHGWTVLQGRIGRPDNPFRVALEYISSGNRSLSAVDFFALKNCSEGTSPGSKMALQSSFTCWNGTVLQLGQACDFHQDCAQGEDESQMCRKLPVGFYCNFEDGFCGWTQGTLSPHTPQWQVRTLKDARFQDHQDHALLLSTTDVPASESATVTSATFPAPIKSSPCELRMSWLIRGVLRGNVSLVLVENKTGKEQGRMVWHVAAYEGLSLWQWMVLPLLDVSDRFWLQMVAWWGQGSRAIVAFDNISISLDCYLTISGEDKILQNTAPKSRNLFERNPNKELKPGENSPRQTPIFDPTVHWLFTTCGASGPHGPTQAQCNNAYQNSNLSVEVGSEGPLKGIQIWKVPATDTYSISGYGAAGGKGGKNTMMRSHGVSVLGIFNLEKDDMLYILVGQQGEDACPSTNQLIQKVCIGENNVIEEEIRVNRSVHEWAGGGGGGGGATYVFKMKDGVPVPLIIAAGGGGRAYGAKTDTFHPERLENNSSVLGLNGNSGAAGGGGGWNDNTSLLWAGKSLQEGATGGHSCPQAMKKWGWETRGGFGGGGGGCSSGGGGGGYIGGNAASNNDPEMDGEDGVSFISPLGILYTPALKVMEGHGEVNIKHYLNCSHCEVDECHMDPESHKVICFCDHGTVLAEDGVSCIVSPTPEPHLPLSLILSVVTSALVAALVLAFSGIMIVYRRKHQELQAMQMELQSPEYKLSKLRTSTIMTDYNPNYCFAGKTSSISDLKEVPRKNITLIRGLGHGAFGEVYEGQVSGMPNDPSPLQVAVKTLPEVCSEQDELDFLMEALIISKFNHQNIVRCIGVSLQSLPRFILLELMAGGDLKSFLRETRPRPSQPSSLAMLDLLHVARDIACGCQYLEENHFIHRDIAARNCLLTCPGPGRVAKIGDFGMARDIYRASYYRKGGCAMLPVKWMPPEAFMEGIFTSKTDTWSFGVLLWEIFSLGYMPYPSKSNQEVLEFVTSGGRMDPPKNCPGPVYRIMTQCWQHQPEDRPNFAIILERIEYCTQDPDVINTALPIEYGPLVEEEEKVPVRPKDPEGVPPLLVSQQAKREEERSPAAPPPLPTTSSGKAAKKPTAAEISVRVPRGPAVEGGHVNMAFSQSNPPSELHKVHGSRNKPTSLWNPTYGSWFTEKPTKKNNPIAKKEPHDRGNLGLEGSCTVPPNVATGRLPGASLLLEPSSLTANMKEVPLFRLRHFPCGNVNYGYQQQGLPLEAATAPGAGHYEDTILKSKNSMNQPGP

> <PDB ID(s) of Target Chain>
2XB7,2XBA,3AOX,5FTO,5FTQ,6E0R,6EBW,6EDL,6MX8

> <UniProt (SwissProt) Recommended Name of Target Chain>
ALK tyrosine kinase receptor

> <UniProt (SwissProt) Entry Name of Target Chain>
ALK_HUMAN

> <UniProt (SwissProt) Primary ID of Target Chain>
Q9UM73

> <UniProt (SwissProt) Secondary ID(s) of Target Chain>
Q4ZFX9,Q53QQ6,Q53RZ4,Q59FI3,Q9Y4K6

> <UniProt (SwissProt) Alternative ID(s) of Target Chain>


> <UniProt (TrEMBL) Submitted Name of Target Chain>


> <UniProt (TrEMBL) Entry Name of Target Chain>


> <UniProt (TrEMBL) Primary ID of Target Chain>


> <UniProt (TrEMBL) Secondary ID(s) of Target Chain>


> <UniProt (TrEMBL) Alternative ID(s) of Target Chain>


$$$$
00200001.cdx
  Mrv0541 02211919242D          

 35 37  0  0  0  0            999 V2000
   -1.8929    0.0854    0.0000 C   0  0  0  0  0  0  0  0  0  0  0  0
   -2.6074   -0.3271    0.0000 C   0  0  0  0  0  0  0  0  0  0  0  0
   -2.6074   -1.1521    0.0000 C   0  0  0  0  0  0  0  0  0  0  0  0
   -1.8929   -1.5646    0.0000 N   0  0  0  0  0  0  0  0  0  0  0  0
   -1.1785   -1.1521    0.0000 C   0  0  0  0  0  0  0  0  0  0  0  0
   -1.1785   -0.3271    0.0000 N   0  0  0  0  0  0  0  0  0  0  0  0
   -3.3219    0.0854    0.0000 Cl  0  0  0  0  0  0  0  0  0  0  0  0
   -0.4640   -1.5646    0.0000 N   0  0  0  0  0  0  0  0  0  0  0  0
   -1.1785    2.1479    0.0000 C   0  0  0  0  0  0  0  0  0  0  0  0
   -1.1785    1.3229    0.0000 C   0  0  0  0  0  0  0  0  0  0  0  0
   -0.4640    0.9104    0.0000 C   0  0  0  0  0  0  0  0  0  0  0  0
    0.2505    1.3229    0.0000 C   0  0  0  0  0  0  0  0  0  0  0  0
    0.2505    2.1479    0.0000 C   0  0  0  0  0  0  0  0  0  0  0  0
   -0.4640    2.5604    0.0000 C   0  0  0  0  0  0  0  0  0  0  0  0
   -1.8929    2.5604    0.0000 S   0  0  0  0  0  0  0  0  0  0  0  0
   -2.6074    2.1479    0.0000 C   0  0  0  0  0  0  0  0  0  0  0  0
   -1.8929    0.9104    0.0000 N   0  0  0  0  0  0  0  0  0  0  0  0
    0.2505   -1.1521    0.0000 C   0  0  0  0  0  0  0  0  0  0  0  0
    0.2505   -0.3271    0.0000 C   0  0  0  0  0  0  0  0  0  0  0  0
    0.9649   -1.5646    0.0000 C   0  0  0  0  0  0  0  0  0  0  0  0
    1.6794   -1.1521    0.0000 C   0  0  0  0  0  0  0  0  0  0  0  0
    1.6794   -0.3271    0.0000 C   0  0  0  0  0  0  0  0  0  0  0  0
    0.9649    0.0854    0.0000 C   0  0  0  0  0  0  0  0  0  0  0  0
    0.9649    0.9104    0.0000 C   0  0  0  0  0  0  0  0  0  0  0  0
    0.9649   -2.3896    0.0000 O   0  0  0  0  0  0  0  0  0  0  0  0
    1.5483   -2.9729    0.0000 C   0  0  0  0  0  0  0  0  0  0  0  0
    2.3939    0.0854    0.0000 C   0  0  0  0  0  0  0  0  0  0  0  0
   -3.3219    2.5604    0.0000 C   0  0  0  0  0  0  0  0  0  0  0  0
   -2.6074    1.3229    0.0000 C   0  0  0  0  0  0  0  0  0  0  0  0
   -2.6074    2.9729    0.0000 O   0  0  0  0  0  0  0  0  0  0  0  0
   -1.1785    2.9729    0.0000 O   0  0  0  0  0  0  0  0  0  0  0  0
    2.6074    0.8823    0.0000 N   0  3  0  0  0  0  0  0  0  0  0  0
    2.6074    1.7073    0.0000 C   0  0  0  0  0  0  0  0  0  0  0  0
    3.3219    1.2948    0.0000 C   0  0  0  0  0  0  0  0  0  0  0  0
    2.0240    1.4657    0.0000 C   0  0  0  0  0  0  0  0  0  0  0  0
 17  1  1  0  0  0  0
  1  2  4  0  0  0  0
  2  3  4  0  0  0  0
  3  4  4  0  0  0  0
  4  5  4  0  0  0  0
  5  6  4  0  0  0  0
  6  1  4  0  0  0  0
  2  7  1  0  0  0  0
  5  8  1  0  0  0  0
  9 10  4  0  0  0  0
 10 11  4  0  0  0  0
 11 12  4  0  0  0  0
 12 13  4  0  0  0  0
 13 14  4  0  0  0  0
 14  9  4  0  0  0  0
  9 15  1  0  0  0  0
 15 16  1  0  0  0  0
 10 17  1  0  0  0  0
  8 18  1  0  0  0  0
 18 19  4  0  0  0  0
 18 20  4  0  0  0  0
 20 21  4  0  0  0  0
 21 22  4  0  0  0  0
 22 23  4  0  0  0  0
 23 19  4  0  0  0  0
 23 24  1  0  0  0  0
 20 25  1  0  0  0  0
 25 26  1  0  0  0  0
 22 27  1  0  0  0  0
 16 28  1  0  0  0  0
 16 29  1  0  0  0  0
 15 30  2  0  0  0  0
 15 31  2  0  0  0  0
 27 32  1  0  0  0  0
 32 33  1  0  0  0  0
 32 34  1  0  0  0  0
 32 35  1  0  0  0  0
M  CHG  1  32   1
M  END
> <From>
www.bindingDB.org

> <BindingDB Reactant_set_id>
556976

> <Ligand InChI>
InChI=1S/C25H33ClN5O3S/c1-16(2)35(32,33)23-11-9-8-10-20(23)28-24-19(26)14-27-25(30-24)29-21-12-17(3)18(13-22(21)34-7)15-31(4,5)6/h8-14,16H,15H2,1-7H3,(H2,27,28,29,30)/q+1

> <Ligand InChI Key>
JMSKTSHWCHAIDU-UHFFFAOYSA-N

> <BindingDB MonomerID>
291998

> <BindingDB Ligand Name>
US10100019, Example 69

> <Target Name Assigned by Curator or DataSource>
ALK tyrosine kinase receptor

> <Target Source Organism According to Curator or DataSource>
Homo sapiens

> <Ki (nM)>


> <IC50 (nM)>
 2.00

> <Kd (nM)>


> <EC50 (nM)>


> <kon (M-1-s-1)>


> <koff (s-1)>


> <pH>


> <Temp C>
25.00

> <Curation/DataSource>
US Patent

> <Article DOI>
10.1016/j.bmcl.2006.04.076

> <PMID>


> <PubChem AID>


> <Patent Number>
US10100019

> <Authors>
Kim, P; Kim, HR; Cho, SY; Ha, JD; Jung, HJ; Yun, CS; Hwang, JY; Park, CH; Lee, CO; Ahn, S; Chae, CH

> <Institution>
Korea Research Institute of Chemical Technology

> <Link to Ligand in BindingDB>
http://www.bindingdb.org/bind/chemsearch/marvin/MolStructure.jsp?monomerid=291998

> <Link to Ligand-Target Pair in BindingDB>
http://www.bindingdb.org/jsp/dbsearch/PrimarySearch_ki.jsp?energyterm=kJ/mole&tag=pol&polymerid=5809&target=ALK+tyrosine+kinase+receptor&column=ki&startPg=0&Increment=50&submit=Search

> <Link to Ligand-Target Pair in BindingDB>
http://www.bindingdb.org/jsp/dbsearch/PrimarySearch_ki.jsp?energyterm=kJ/mole&tag=r21&monomerid=291998&enzyme=ALK+tyrosine+kinase+receptor&column=ki&startPg=0&Increment=50&submit=Search

> <Ligand HET ID in PDB>


> <PDB ID(s) for Ligand-Target Complex>


> <PubChem CID>
134449983

> <PubChem SID>
381612297

> <ChEBI ID of Ligand>


> <ChEMBL ID of Ligand>


> <DrugBank ID of Ligand>


> <IUPHAR_GRAC ID of Ligand>


> <KEGG ID of Ligand>


> <ZINC ID of Ligand>


> <Number of Protein Chains in Target (>1 implies a multichain complex)>
1

> <BindingDB Target Chain Sequence>
MGAIGLLWLLPLLLSTAAVGSGMGTGQRAGSPAAGPPLQPREPLSYSRLQRKSLAVDFVVPSLFRVYARDLLLPPSSSELKAGRPEARGSLALDCAPLLRLLGPAPGVSWTAGSPAPAEARTLSRVLKGGSVRKLRRAKQLVLELGEEAILEGCVGPPGEAAVGLLQFNLSELFSWWIRQGEGRLRIRLMPEKKASEVGREGRLSAAIRASQPRLLFQIFGTGHSSLESPTNMPSPSPDYFTWNLTWIMKDSFPFLSHRSRYGLECSFDFPCELEYSPPLHDLRNQSWSWRRIPSEEASQMDLLDGPGAERSKEMPRGSFLLLNTSADSKHTILSPWMRSSSEHCTLAVSVHRHLQPSGRYIAQLLPHNEAAREILLMPTPGKHGWTVLQGRIGRPDNPFRVALEYISSGNRSLSAVDFFALKNCSEGTSPGSKMALQSSFTCWNGTVLQLGQACDFHQDCAQGEDESQMCRKLPVGFYCNFEDGFCGWTQGTLSPHTPQWQVRTLKDARFQDHQDHALLLSTTDVPASESATVTSATFPAPIKSSPCELRMSWLIRGVLRGNVSLVLVENKTGKEQGRMVWHVAAYEGLSLWQWMVLPLLDVSDRFWLQMVAWWGQGSRAIVAFDNISISLDCYLTISGEDKILQNTAPKSRNLFERNPNKELKPGENSPRQTPIFDPTVHWLFTTCGASGPHGPTQAQCNNAYQNSNLSVEVGSEGPLKGIQIWKVPATDTYSISGYGAAGGKGGKNTMMRSHGVSVLGIFNLEKDDMLYILVGQQGEDACPSTNQLIQKVCIGENNVIEEEIRVNRSVHEWAGGGGGGGGATYVFKMKDGVPVPLIIAAGGGGRAYGAKTDTFHPERLENNSSVLGLNGNSGAAGGGGGWNDNTSLLWAGKSLQEGATGGHSCPQAMKKWGWETRGGFGGGGGGCSSGGGGGGYIGGNAASNNDPEMDGEDGVSFISPLGILYTPALKVMEGHGEVNIKHYLNCSHCEVDECHMDPESHKVICFCDHGTVLAEDGVSCIVSPTPEPHLPLSLILSVVTSALVAALVLAFSGIMIVYRRKHQELQAMQMELQSPEYKLSKLRTSTIMTDYNPNYCFAGKTSSISDLKEVPRKNITLIRGLGHGAFGEVYEGQVSGMPNDPSPLQVAVKTLPEVCSEQDELDFLMEALIISKFNHQNIVRCIGVSLQSLPRFILLELMAGGDLKSFLRETRPRPSQPSSLAMLDLLHVARDIACGCQYLEENHFIHRDIAARNCLLTCPGPGRVAKIGDFGMARDIYRASYYRKGGCAMLPVKWMPPEAFMEGIFTSKTDTWSFGVLLWEIFSLGYMPYPSKSNQEVLEFVTSGGRMDPPKNCPGPVYRIMTQCWQHQPEDRPNFAIILERIEYCTQDPDVINTALPIEYGPLVEEEEKVPVRPKDPEGVPPLLVSQQAKREEERSPAAPPPLPTTSSGKAAKKPTAAEISVRVPRGPAVEGGHVNMAFSQSNPPSELHKVHGSRNKPTSLWNPTYGSWFTEKPTKKNNPIAKKEPHDRGNLGLEGSCTVPPNVATGRLPGASLLLEPSSLTANMKEVPLFRLRHFPCGNVNYGYQQQGLPLEAATAPGAGHYEDTILKSKNSMNQPGP

> <PDB ID(s) of Target Chain>
2XB7,2XBA,3AOX,5FTO,5FTQ,6E0R,6EBW,6EDL,6MX8

> <UniProt (SwissProt) Recommended Name of Target Chain>
ALK tyrosine kinase receptor

> <UniProt (SwissProt) Entry Name of Target Chain>
ALK_HUMAN

> <UniProt (SwissProt) Primary ID of Target Chain>
Q9UM73

> <UniProt (SwissProt) Secondary ID(s) of Target Chain>
Q4ZFX9,Q53QQ6,Q53RZ4,Q59FI3,Q9Y4K6

> <UniProt (SwissProt) Alternative ID(s) of Target Chain>


> <UniProt (TrEMBL) Submitted Name of Target Chain>


> <UniProt (TrEMBL) Entry Name of Target Chain>


> <UniProt (TrEMBL) Primary ID of Target Chain>


> <UniProt (TrEMBL) Secondary ID(s) of Target Chain>


> <UniProt (TrEMBL) Alternative ID(s) of Target Chain>


$$$$
00206001.cdx
  Mrv0541 02211919242D          

 34 36  0  0  0  0            999 V2000
   -1.8929    0.0854    0.0000 C   0  0  0  0  0  0  0  0  0  0  0  0
   -2.6074   -0.3271    0.0000 C   0  0  0  0  0  0  0  0  0  0  0  0
   -2.6074   -1.1521    0.0000 C   0  0  0  0  0  0  0  0  0  0  0  0
   -1.8929   -1.5646    0.0000 N   0  0  0  0  0  0  0  0  0  0  0  0
   -1.1785   -1.1521    0.0000 C   0  0  0  0  0  0  0  0  0  0  0  0
   -1.1785   -0.3271    0.0000 N   0  0  0  0  0  0  0  0  0  0  0  0
   -3.3219    0.0854    0.0000 Cl  0  0  0  0  0  0  0  0  0  0  0  0
   -0.4640   -1.5646    0.0000 N   0  0  0  0  0  0  0  0  0  0  0  0
   -1.1785    2.1479    0.0000 C   0  0  0  0  0  0  0  0  0  0  0  0
   -1.1785    1.3229    0.0000 C   0  0  0  0  0  0  0  0  0  0  0  0
   -0.4640    0.9104    0.0000 C   0  0  0  0  0  0  0  0  0  0  0  0
    0.2505    1.3229    0.0000 C   0  0  0  0  0  0  0  0  0  0  0  0
    0.2505    2.1479    0.0000 C   0  0  0  0  0  0  0  0  0  0  0  0
   -0.4640    2.5604    0.0000 C   0  0  0  0  0  0  0  0  0  0  0  0
   -1.8929    2.5604    0.0000 S   0  0  0  0  0  0  0  0  0  0  0  0
   -2.6074    2.1479    0.0000 C   0  0  0  0  0  0  0  0  0  0  0  0
   -1.8929    0.9104    0.0000 N   0  0  0  0  0  0  0  0  0  0  0  0
    0.2505   -1.1521    0.0000 C   0  0  0  0  0  0  0  0  0  0  0  0
    0.2505   -0.3271    0.0000 C   0  0  0  0  0  0  0  0  0  0  0  0
    0.9649   -1.5646    0.0000 C   0  0  0  0  0  0  0  0  0  0  0  0
    1.6794   -1.1521    0.0000 C   0  0  0  0  0  0  0  0  0  0  0  0
    1.6794   -0.3271    0.0000 C   0  0  0  0  0  0  0  0  0  0  0  0
    0.9649    0.0854    0.0000 C   0  0  0  0  0  0  0  0  0  0  0  0
    0.9649    0.9104    0.0000 C   0  0  0  0  0  0  0  0  0  0  0  0
    0.9649   -2.3896    0.0000 O   0  0  0  0  0  0  0  0  0  0  0  0
    1.5483   -2.9729    0.0000 C   0  0  0  0  0  0  0  0  0  0  0  0
    2.3939    0.0854    0.0000 C   0  0  0  0  0  0  0  0  0  0  0  0
   -3.3219    2.5604    0.0000 C   0  0  0  0  0  0  0  0  0  0  0  0
   -2.6074    1.3229    0.0000 C   0  0  0  0  0  0  0  0  0  0  0  0
   -2.6074    2.9729    0.0000 O   0  0  0  0  0  0  0  0  0  0  0  0
   -1.1785    2.9729    0.0000 O   0  0  0  0  0  0  0  0  0  0  0  0
    2.6074    0.8823    0.0000 N   0  0  0  0  0  0  0  0  0  0  0  0
    3.3219    1.2948    0.0000 C   0  0  0  0  0  0  0  0  0  0  0  0
    2.0240    1.4657    0.0000 C   0  0  0  0  0  0  0  0  0  0  0  0
 17  1  1  0  0  0  0
  1  2  4  0  0  0  0
  2  3  4  0  0  0  0
  3  4  4  0  0  0  0
  4  5  4  0  0  0  0
  5  6  4  0  0  0  0
  6  1  4  0  0  0  0
  2  7  1  0  0  0  0
  5  8  1  0  0  0  0
  9 10  4  0  0  0  0
 10 11  4  0  0  0  0
 11 12  4  0  0  0  0
 12 13  4  0  0  0  0
 13 14  4  0  0  0  0
 14  9  4  0  0  0  0
  9 15  1  0  0  0  0
 15 16  1  0  0  0  0
 10 17  1  0  0  0  0
  8 18  1  0  0  0  0
 18 19  4  0  0  0  0
 18 20  4  0  0  0  0
 20 21  4  0  0  0  0
 21 22  4  0  0  0  0
 22 23  4  0  0  0  0
 23 19  4  0  0  0  0
 23 24  1  0  0  0  0
 20 25  1  0  0  0  0
 25 26  1  0  0  0  0
 22 27  1  0  0  0  0
 16 28  1  0  0  0  0
 16 29  1  0  0  0  0
 15 30  2  0  0  0  0
 15 31  2  0  0  0  0
 27 32  1  0  0  0  0
 32 33  1  0  0  0  0
 32 34  1  0  0  0  0
M  END
> <From>
www.bindingDB.org

> <BindingDB Reactant_set_id>
50676548

> <Ligand InChI>
InChI=1S/C24H30ClN5O3S/c1-15(2)34(31,32)22-10-8-7-9-19(22)27-23-18(25)13-26-24(29-23)28-20-11-16(3)17(14-30(4)5)12-21(20)33-6/h7-13,15H,14H2,1-6H3,(H2,26,27,28,29)

> <Ligand InChI Key>
YLAPHXZIXJJZIH-UHFFFAOYSA-N

> <BindingDB MonomerID>
291999

> <BindingDB Ligand Name>
US10100019, Example 70

> <Target Name Assigned by Curator or DataSource>
ALK tyrosine kinase receptor

> <Target Source Organism According to Curator or DataSource>
Homo sapiens

> <Ki (nM)>


> <IC50 (nM)>
 3.4

> <Kd (nM)>


> <EC50 (nM)>


> <kon (M-1-s-1)>


> <koff (s-1)>


> <pH>


> <Temp C>


> <Curation/DataSource>
ChEMBL

> <Article DOI>
10.1016/j.ejmech.2016.11.046

> <PMID>
27915169

> <PubChem AID>


> <Patent Number>


> <Authors>
Mathi, GR; Kang, CH; Lee, HK; Achary, R; Lee, HY; Lee, JY; Ha, JD; Ahn, S; Park, CH; Lee, CO; Hwang, JY; Yun, CS; Jung, HJ; Cho, SY; Kim, HR; Kim, P

> <Institution>
Korea Research Institute of Chemical Technology

> <Link to Ligand in BindingDB>
http://www.bindingdb.org/bind/chemsearch/marvin/MolStructure.jsp?monomerid=291999

> <Link to Ligand-Target Pair in BindingDB>
http://www.bindingdb.org/jsp/dbsearch/PrimarySearch_ki.jsp?energyterm=kJ/mole&tag=pol&polymerid=5809&target=ALK+tyrosine+kinase+receptor&column=ki&startPg=0&Increment=50&submit=Search

> <Link to Ligand-Target Pair in BindingDB>
http://www.bindingdb.org/jsp/dbsearch/PrimarySearch_ki.jsp?energyterm=kJ/mole&tag=r21&monomerid=291999&enzyme=ALK+tyrosine+kinase+receptor&column=ki&startPg=0&Increment=50&submit=Search

> <Ligand HET ID in PDB>


> <PDB ID(s) for Ligand-Target Complex>


> <PubChem CID>
134449984

> <PubChem SID>
381612298

> <ChEBI ID of Ligand>


> <ChEMBL ID of Ligand>


> <DrugBank ID of Ligand>


> <IUPHAR_GRAC ID of Ligand>


> <KEGG ID of Ligand>


> <ZINC ID of Ligand>


> <Number of Protein Chains in Target (>1 implies a multichain complex)>
1

> <BindingDB Target Chain Sequence>
MGAIGLLWLLPLLLSTAAVGSGMGTGQRAGSPAAGPPLQPREPLSYSRLQRKSLAVDFVVPSLFRVYARDLLLPPSSSELKAGRPEARGSLALDCAPLLRLLGPAPGVSWTAGSPAPAEARTLSRVLKGGSVRKLRRAKQLVLELGEEAILEGCVGPPGEAAVGLLQFNLSELFSWWIRQGEGRLRIRLMPEKKASEVGREGRLSAAIRASQPRLLFQIFGTGHSSLESPTNMPSPSPDYFTWNLTWIMKDSFPFLSHRSRYGLECSFDFPCELEYSPPLHDLRNQSWSWRRIPSEEASQMDLLDGPGAERSKEMPRGSFLLLNTSADSKHTILSPWMRSSSEHCTLAVSVHRHLQPSGRYIAQLLPHNEAAREILLMPTPGKHGWTVLQGRIGRPDNPFRVALEYISSGNRSLSAVDFFALKNCSEGTSPGSKMALQSSFTCWNGTVLQLGQACDFHQDCAQGEDESQMCRKLPVGFYCNFEDGFCGWTQGTLSPHTPQWQVRTLKDARFQDHQDHALLLSTTDVPASESATVTSATFPAPIKSSPCELRMSWLIRGVLRGNVSLVLVENKTGKEQGRMVWHVAAYEGLSLWQWMVLPLLDVSDRFWLQMVAWWGQGSRAIVAFDNISISLDCYLTISGEDKILQNTAPKSRNLFERNPNKELKPGENSPRQTPIFDPTVHWLFTTCGASGPHGPTQAQCNNAYQNSNLSVEVGSEGPLKGIQIWKVPATDTYSISGYGAAGGKGGKNTMMRSHGVSVLGIFNLEKDDMLYILVGQQGEDACPSTNQLIQKVCIGENNVIEEEIRVNRSVHEWAGGGGGGGGATYVFKMKDGVPVPLIIAAGGGGRAYGAKTDTFHPERLENNSSVLGLNGNSGAAGGGGGWNDNTSLLWAGKSLQEGATGGHSCPQAMKKWGWETRGGFGGGGGGCSSGGGGGGYIGGNAASNNDPEMDGEDGVSFISPLGILYTPALKVMEGHGEVNIKHYLNCSHCEVDECHMDPESHKVICFCDHGTVLAEDGVSCIVSPTPEPHLPLSLILSVVTSALVAALVLAFSGIMIVYRRKHQELQAMQMELQSPEYKLSKLRTSTIMTDYNPNYCFAGKTSSISDLKEVPRKNITLIRGLGHGAFGEVYEGQVSGMPNDPSPLQVAVKTLPEVCSEQDELDFLMEALIISKFNHQNIVRCIGVSLQSLPRFILLELMAGGDLKSFLRETRPRPSQPSSLAMLDLLHVARDIACGCQYLEENHFIHRDIAARNCLLTCPGPGRVAKIGDFGMARDIYRASYYRKGGCAMLPVKWMPPEAFMEGIFTSKTDTWSFGVLLWEIFSLGYMPYPSKSNQEVLEFVTSGGRMDPPKNCPGPVYRIMTQCWQHQPEDRPNFAIILERIEYCTQDPDVINTALPIEYGPLVEEEEKVPVRPKDPEGVPPLLVSQQAKREEERSPAAPPPLPTTSSGKAAKKPTAAEISVRVPRGPAVEGGHVNMAFSQSNPPSELHKVHGSRNKPTSLWNPTYGSWFTEKPTKKNNPIAKKEPHDRGNLGLEGSCTVPPNVATGRLPGASLLLEPSSLTANMKEVPLFRLRHFPCGNVNYGYQQQGLPLEAATAPGAGHYEDTILKSKNSMNQPGP

> <PDB ID(s) of Target Chain>
2XB7,2XBA,3AOX,5FTO,5FTQ,6E0R,6EBW,6EDL,6MX8

> <UniProt (SwissProt) Recommended Name of Target Chain>
ALK tyrosine kinase receptor

> <UniProt (SwissProt) Entry Name of Target Chain>
ALK_HUMAN

> <UniProt (SwissProt) Primary ID of Target Chain>
Q9UM73

> <UniProt (SwissProt) Secondary ID(s) of Target Chain>
Q4ZFX9,Q53QQ6,Q53RZ4,Q59FI3,Q9Y4K6

> <UniProt (SwissProt) Alternative ID(s) of Target Chain>


> <UniProt (TrEMBL) Submitted Name of Target Chain>


> <UniProt (TrEMBL) Entry Name of Target Chain>


> <UniProt (TrEMBL) Primary ID of Target Chain>


> <UniProt (TrEMBL) Secondary ID(s) of Target Chain>


> <UniProt (TrEMBL) Alternative ID(s) of Target Chain>


$$$$
00201001.cdx
  Mrv0541 02211919242D          

 34 36  0  0  0  0            999 V2000
   -2.1846    0.0854    0.0000 C   0  0  0  0  0  0  0  0  0  0  0  0
   -2.8991   -0.3271    0.0000 C   0  0  0  0  0  0  0  0  0  0  0  0
   -2.8991   -1.1521    0.0000 C   0  0  0  0  0  0  0  0  0  0  0  0
   -2.1846   -1.5646    0.0000 N   0  0  0  0  0  0  0  0  0  0  0  0
   -1.4702   -1.1521    0.0000 C   0  0  0  0  0  0  0  0  0  0  0  0
   -1.4702   -0.3271    0.0000 N   0  0  0  0  0  0  0  0  0  0  0  0
   -3.6136    0.0854    0.0000 Cl  0  0  0  0  0  0  0  0  0  0  0  0
   -0.7557   -1.5646    0.0000 N   0  0  0  0  0  0  0  0  0  0  0  0
   -1.4702    2.1479    0.0000 C   0  0  0  0  0  0  0  0  0  0  0  0
   -1.4702    1.3229    0.0000 C   0  0  0  0  0  0  0  0  0  0  0  0
   -0.7557    0.9104    0.0000 C   0  0  0  0  0  0  0  0  0  0  0  0
   -0.0412    1.3229    0.0000 C   0  0  0  0  0  0  0  0  0  0  0  0
   -0.0412    2.1479    0.0000 C   0  0  0  0  0  0  0  0  0  0  0  0
   -0.7557    2.5604    0.0000 C   0  0  0  0  0  0  0  0  0  0  0  0
   -2.1846    2.5604    0.0000 S   0  0  0  0  0  0  0  0  0  0  0  0
   -2.8991    2.1479    0.0000 C   0  0  0  0  0  0  0  0  0  0  0  0
   -2.1846    0.9104    0.0000 N   0  0  0  0  0  0  0  0  0  0  0  0
   -0.0412   -1.1521    0.0000 C   0  0  0  0  0  0  0  0  0  0  0  0
   -0.0412   -0.3271    0.0000 C   0  0  0  0  0  0  0  0  0  0  0  0
    0.6733   -1.5646    0.0000 C   0  0  0  0  0  0  0  0  0  0  0  0
    1.3877   -1.1521    0.0000 C   0  0  0  0  0  0  0  0  0  0  0  0
    1.3877   -0.3271    0.0000 C   0  0  0  0  0  0  0  0  0  0  0  0
    0.6733    0.0854    0.0000 C   0  0  0  0  0  0  0  0  0  0  0  0
    0.6733    0.9104    0.0000 C   0  0  0  0  0  0  0  0  0  0  0  0
    0.6733   -2.3896    0.0000 O   0  0  0  0  0  0  0  0  0  0  0  0
    1.2566   -2.9729    0.0000 C   0  0  0  0  0  0  0  0  0  0  0  0
    2.1022    0.0854    0.0000 C   0  0  0  0  0  0  0  0  0  0  0  0
   -3.6136    2.5604    0.0000 C   0  0  0  0  0  0  0  0  0  0  0  0
   -2.8991    1.3229    0.0000 C   0  0  0  0  0  0  0  0  0  0  0  0
   -2.8991    2.9729    0.0000 O   0  0  0  0  0  0  0  0  0  0  0  0
   -1.4702    2.9729    0.0000 O   0  0  0  0  0  0  0  0  0  0  0  0
    2.3157    0.8823    0.0000 N   0  0  0  0  0  0  0  0  0  0  0  0
    2.8991    1.4657    0.0000 C   0  0  0  0  0  0  0  0  0  0  0  0
    3.6136    1.0532    0.0000 O   0  0  0  0  0  0  0  0  0  0  0  0
 17  1  1  0  0  0  0
  1  2  4  0  0  0  0
  2  3  4  0  0  0  0
  3  4  4  0  0  0  0
  4  5  4  0  0  0  0
  5  6  4  0  0  0  0
  6  1  4  0  0  0  0
  2  7  1  0  0  0  0
  5  8  1  0  0  0  0
  9 10  4  0  0  0  0
 10 11  4  0  0  0  0
 11 12  4  0  0  0  0
 12 13  4  0  0  0  0
 13 14  4  0  0  0  0
 14  9  4  0  0  0  0
  9 15  1  0  0  0  0
 15 16  1  0  0  0  0
 10 17  1  0  0  0  0
  8 18  1  0  0  0  0
 18 19  4  0  0  0  0
 18 20  4  0  0  0  0
 20 21  4  0  0  0  0
 21 22  4  0  0  0  0
 22 23  4  0  0  0  0
 23 19  4  0  0  0  0
 23 24  1  0  0  0  0
 20 25  1  0  0  0  0
 25 26  1  0  0  0  0
 22 27  1  0  0  0  0
 16 28  1  0  0  0  0
 16 29  1  0  0  0  0
 15 30  2  0  0  0  0
 15 31  2  0  0  0  0
 27 32  1  0  0  0  0
 32 33  1  0  0  0  0
 33 34  2  0  0  0  0
M  END
> <From>
www.bindingDB.org

> <BindingDB Reactant_set_id>
556978

> <Ligand InChI>
InChI=1S/C23H26ClN5O4S/c1-14(2)34(31,32)21-8-6-5-7-18(21)27-22-17(24)12-26-23(29-22)28-19-9-15(3)16(11-25-13-30)10-20(19)33-4/h5-10,12-14H,11H2,1-4H3,(H,25,30)(H2,26,27,28,29)

> <Ligand InChI Key>
JKEFKVZKYKUDGL-UHFFFAOYSA-N

> <BindingDB MonomerID>
292000

> <BindingDB Ligand Name>
US10100019, Example 71

> <Target Name Assigned by Curator or DataSource>
ALK tyrosine kinase receptor

> <Target Source Organism According to Curator or DataSource>
Homo sapiens

> <Ki (nM)>


> <IC50 (nM)>
 4.72

> <Kd (nM)>


> <EC50 (nM)>


> <kon (M-1-s-1)>


> <koff (s-1)>


> <pH>


> <Temp C>
25.00

> <Curation/DataSource>
US Patent

> <Article DOI>
10.1016/j.bmcl.2006.04.076

> <PMID>


> <PubChem AID>


> <Patent Number>
US10100019

> <Authors>
Kim, P; Kim, HR; Cho, SY; Ha, JD; Jung, HJ; Yun, CS; Hwang, JY; Park, CH; Lee, CO; Ahn, S; Chae, CH

> <Institution>
Korea Research Institute of Chemical Technology

> <Link to Ligand in BindingDB>
http://www.bindingdb.org/bind/chemsearch/marvin/MolStructure.jsp?monomerid=292000

> <Link to Ligand-Target Pair in BindingDB>
http://www.bindingdb.org/jsp/dbsearch/PrimarySearch_ki.jsp?energyterm=kJ/mole&tag=pol&polymerid=5809&target=ALK+tyrosine+kinase+receptor&column=ki&startPg=0&Increment=50&submit=Search

> <Link to Ligand-Target Pair in BindingDB>
http://www.bindingdb.org/jsp/dbsearch/PrimarySearch_ki.jsp?energyterm=kJ/mole&tag=r21&monomerid=292000&enzyme=ALK+tyrosine+kinase+receptor&column=ki&startPg=0&Increment=50&submit=Search

> <Ligand HET ID in PDB>


> <PDB ID(s) for Ligand-Target Complex>


> <PubChem CID>
134449985

> <PubChem SID>
381612299

> <ChEBI ID of Ligand>


> <ChEMBL ID of Ligand>


> <DrugBank ID of Ligand>


> <IUPHAR_GRAC ID of Ligand>


> <KEGG ID of Ligand>
C06049

> <ZINC ID of Ligand>


> <Number of Protein Chains in Target (>1 implies a multichain complex)>
1

> <BindingDB Target Chain Sequence>
MGAIGLLWLLPLLLSTAAVGSGMGTGQRAGSPAAGPPLQPREPLSYSRLQRKSLAVDFVVPSLFRVYARDLLLPPSSSELKAGRPEARGSLALDCAPLLRLLGPAPGVSWTAGSPAPAEARTLSRVLKGGSVRKLRRAKQLVLELGEEAILEGCVGPPGEAAVGLLQFNLSELFSWWIRQGEGRLRIRLMPEKKASEVGREGRLSAAIRASQPRLLFQIFGTGHSSLESPTNMPSPSPDYFTWNLTWIMKDSFPFLSHRSRYGLECSFDFPCELEYSPPLHDLRNQSWSWRRIPSEEASQMDLLDGPGAERSKEMPRGSFLLLNTSADSKHTILSPWMRSSSEHCTLAVSVHRHLQPSGRYIAQLLPHNEAAREILLMPTPGKHGWTVLQGRIGRPDNPFRVALEYISSGNRSLSAVDFFALKNCSEGTSPGSKMALQSSFTCWNGTVLQLGQACDFHQDCAQGEDESQMCRKLPVGFYCNFEDGFCGWTQGTLSPHTPQWQVRTLKDARFQDHQDHALLLSTTDVPASESATVTSATFPAPIKSSPCELRMSWLIRGVLRGNVSLVLVENKTGKEQGRMVWHVAAYEGLSLWQWMVLPLLDVSDRFWLQMVAWWGQGSRAIVAFDNISISLDCYLTISGEDKILQNTAPKSRNLFERNPNKELKPGENSPRQTPIFDPTVHWLFTTCGASGPHGPTQAQCNNAYQNSNLSVEVGSEGPLKGIQIWKVPATDTYSISGYGAAGGKGGKNTMMRSHGVSVLGIFNLEKDDMLYILVGQQGEDACPSTNQLIQKVCIGENNVIEEEIRVNRSVHEWAGGGGGGGGATYVFKMKDGVPVPLIIAAGGGGRAYGAKTDTFHPERLENNSSVLGLNGNSGAAGGGGGWNDNTSLLWAGKSLQEGATGGHSCPQAMKKWGWETRGGFGGGGGGCSSGGGGGGYIGGNAASNNDPEMDGEDGVSFISPLGILYTPALKVMEGHGEVNIKHYLNCSHCEVDECHMDPESHKVICFCDHGTVLAEDGVSCIVSPTPEPHLPLSLILSVVTSALVAALVLAFSGIMIVYRRKHQELQAMQMELQSPEYKLSKLRTSTIMTDYNPNYCFAGKTSSISDLKEVPRKNITLIRGLGHGAFGEVYEGQVSGMPNDPSPLQVAVKTLPEVCSEQDELDFLMEALIISKFNHQNIVRCIGVSLQSLPRFILLELMAGGDLKSFLRETRPRPSQPSSLAMLDLLHVARDIACGCQYLEENHFIHRDIAARNCLLTCPGPGRVAKIGDFGMARDIYRASYYRKGGCAMLPVKWMPPEAFMEGIFTSKTDTWSFGVLLWEIFSLGYMPYPSKSNQEVLEFVTSGGRMDPPKNCPGPVYRIMTQCWQHQPEDRPNFAIILERIEYCTQDPDVINTALPIEYGPLVEEEEKVPVRPKDPEGVPPLLVSQQAKREEERSPAAPPPLPTTSSGKAAKKPTAAEISVRVPRGPAVEGGHVNMAFSQSNPPSELHKVHGSRNKPTSLWNPTYGSWFTEKPTKKNNPIAKKEPHDRGNLGLEGSCTVPPNVATGRLPGASLLLEPSSLTANMKEVPLFRLRHFPCGNVNYGYQQQGLPLEAATAPGAGHYEDTILKSKNSMNQPGP

> <PDB ID(s) of Target Chain>
2XB7,2XBA,3AOX,5FTO,5FTQ,6E0R,6EBW,6EDL,6MX8

> <UniProt (SwissProt) Recommended Name of Target Chain>
ALK tyrosine kinase receptor

> <UniProt (SwissProt) Entry Name of Target Chain>
ALK_HUMAN

> <UniProt (SwissProt) Primary ID of Target Chain>
Q9UM73

> <UniProt (SwissProt) Secondary ID(s) of Target Chain>
Q4ZFX9,Q53QQ6,Q53RZ4,Q59FI3,Q9Y4K6

> <UniProt (SwissProt) Alternative ID(s) of Target Chain>


> <UniProt (TrEMBL) Submitted Name of Target Chain>


> <UniProt (TrEMBL) Entry Name of Target Chain>


> <UniProt (TrEMBL) Primary ID of Target Chain>


> <UniProt (TrEMBL) Secondary ID(s) of Target Chain>


> <UniProt (TrEMBL) Alternative ID(s) of Target Chain>


$$$$
00207001.cdx
  Mrv0541 02211919242D          

 33 35  0  0  0  0            999 V2000
   -1.8274    0.0854    0.0000 C   0  0  0  0  0  0  0  0  0  0  0  0
   -2.5419   -0.3271    0.0000 C   0  0  0  0  0  0  0  0  0  0  0  0
   -2.5419   -1.1521    0.0000 C   0  0  0  0  0  0  0  0  0  0  0  0
   -1.8274   -1.5646    0.0000 N   0  0  0  0  0  0  0  0  0  0  0  0
   -1.1129   -1.1521    0.0000 C   0  0  0  0  0  0  0  0  0  0  0  0
   -1.1129   -0.3271    0.0000 N   0  0  0  0  0  0  0  0  0  0  0  0
   -3.2563    0.0854    0.0000 Cl  0  0  0  0  0  0  0  0  0  0  0  0
   -0.3984   -1.5646    0.0000 N   0  0  0  0  0  0  0  0  0  0  0  0
   -1.1129    2.1479    0.0000 C   0  0  0  0  0  0  0  0  0  0  0  0
   -1.1129    1.3229    0.0000 C   0  0  0  0  0  0  0  0  0  0  0  0
   -0.3984    0.9104    0.0000 C   0  0  0  0  0  0  0  0  0  0  0  0
    0.3160    1.3229    0.0000 C   0  0  0  0  0  0  0  0  0  0  0  0
    0.3160    2.1479    0.0000 C   0  0  0  0  0  0  0  0  0  0  0  0
   -0.3984    2.5604    0.0000 C   0  0  0  0  0  0  0  0  0  0  0  0
   -1.8274    2.5604    0.0000 S   0  0  0  0  0  0  0  0  0  0  0  0
   -2.5419    2.1479    0.0000 C   0  0  0  0  0  0  0  0  0  0  0  0
   -1.8274    0.9104    0.0000 N   0  0  0  0  0  0  0  0  0  0  0  0
    0.3160   -1.1521    0.0000 C   0  0  0  0  0  0  0  0  0  0  0  0
    0.3160   -0.3271    0.0000 C   0  0  0  0  0  0  0  0  0  0  0  0
    1.0305   -1.5646    0.0000 C   0  0  0  0  0  0  0  0  0  0  0  0
    1.7450   -1.1521    0.0000 C   0  0  0  0  0  0  0  0  0  0  0  0
    1.7450   -0.3271    0.0000 C   0  0  0  0  0  0  0  0  0  0  0  0
    1.0305    0.0854    0.0000 C   0  0  0  0  0  0  0  0  0  0  0  0
    1.0305    0.9104    0.0000 C   0  0  0  0  0  0  0  0  0  0  0  0
    1.0305   -2.3896    0.0000 O   0  0  0  0  0  0  0  0  0  0  0  0
    1.6139   -2.9729    0.0000 C   0  0  0  0  0  0  0  0  0  0  0  0
    2.4594    0.0854    0.0000 C   0  0  0  0  0  0  0  0  0  0  0  0
   -3.2563    2.5604    0.0000 C   0  0  0  0  0  0  0  0  0  0  0  0
   -2.5419    1.3229    0.0000 C   0  0  0  0  0  0  0  0  0  0  0  0
   -2.5419    2.9729    0.0000 O   0  0  0  0  0  0  0  0  0  0  0  0
   -1.1129    2.9729    0.0000 O   0  0  0  0  0  0  0  0  0  0  0  0
    2.6730    0.8823    0.0000 N   0  0  0  0  0  0  0  0  0  0  0  0
    3.2563    1.4657    0.0000 C   0  0  0  0  0  0  0  0  0  0  0  0
 17  1  1  0  0  0  0
  1  2  4  0  0  0  0
  2  3  4  0  0  0  0
  3  4  4  0  0  0  0
  4  5  4  0  0  0  0
  5  6  4  0  0  0  0
  6  1  4  0  0  0  0
  2  7  1  0  0  0  0
  5  8  1  0  0  0  0
  9 10  4  0  0  0  0
 10 11  4  0  0  0  0
 11 12  4  0  0  0  0
 12 13  4  0  0  0  0
 13 14  4  0  0  0  0
 14  9  4  0  0  0  0
  9 15  1  0  0  0  0
 15 16  1  0  0  0  0
 10 17  1  0  0  0  0
  8 18  1  0  0  0  0
 18 19  4  0  0  0  0
 18 20  4  0  0  0  0
 20 21  4  0  0  0  0
 21 22  4  0  0  0  0
 22 23  4  0  0  0  0
 23 19  4  0  0  0  0
 23 24  1  0  0  0  0
 20 25  1  0  0  0  0
 25 26  1  0  0  0  0
 22 27  1  0  0  0  0
 16 28  1  0  0  0  0
 16 29  1  0  0  0  0
 15 30  2  0  0  0  0
 15 31  2  0  0  0  0
 27 32  1  0  0  0  0
 32 33  1  0  0  0  0
M  END
> <From>
www.bindingDB.org

> <BindingDB Reactant_set_id>
556979

> <Ligand InChI>
InChI=1S/C23H28ClN5O3S/c1-14(2)33(30,31)21-9-7-6-8-18(21)27-22-17(24)13-26-23(29-22)28-19-10-15(3)16(12-25-4)11-20(19)32-5/h6-11,13-14,25H,12H2,1-5H3,(H2,26,27,28,29)

> <Ligand InChI Key>
GMAVZOAXIGWUEM-UHFFFAOYSA-N

> <BindingDB MonomerID>
292001

> <BindingDB Ligand Name>
US10100019, Example 72

> <Target Name Assigned by Curator or DataSource>
ALK tyrosine kinase receptor

> <Target Source Organism According to Curator or DataSource>
Homo sapiens

> <Ki (nM)>


> <IC50 (nM)>
 1.74

> <Kd (nM)>


> <EC50 (nM)>


> <kon (M-1-s-1)>


> <koff (s-1)>


> <pH>


> <Temp C>
25.00

> <Curation/DataSource>
US Patent

> <Article DOI>
10.1016/j.bmcl.2006.04.076

> <PMID>


> <PubChem AID>


> <Patent Number>
US10100019

> <Authors>
Kim, P; Kim, HR; Cho, SY; Ha, JD; Jung, HJ; Yun, CS; Hwang, JY; Park, CH; Lee, CO; Ahn, S; Chae, CH

> <Institution>
Korea Research Institute of Chemical Technology

> <Link to Ligand in BindingDB>
http://www.bindingdb.org/bind/chemsearch/marvin/MolStructure.jsp?monomerid=292001

> <Link to Ligand-Target Pair in BindingDB>
http://www.bindingdb.org/jsp/dbsearch/PrimarySearch_ki.jsp?energyterm=kJ/mole&tag=pol&polymerid=5809&target=ALK+tyrosine+kinase+receptor&column=ki&startPg=0&Increment=50&submit=Search

> <Link to Ligand-Target Pair in BindingDB>
http://www.bindingdb.org/jsp/dbsearch/PrimarySearch_ki.jsp?energyterm=kJ/mole&tag=r21&monomerid=292001&enzyme=ALK+tyrosine+kinase+receptor&column=ki&startPg=0&Increment=50&submit=Search

> <Ligand HET ID in PDB>


> <PDB ID(s) for Ligand-Target Complex>


> <PubChem CID>
134449987

> <PubChem SID>
381612300

> <ChEBI ID of Ligand>


> <ChEMBL ID of Ligand>


> <DrugBank ID of Ligand>


> <IUPHAR_GRAC ID of Ligand>


> <KEGG ID of Ligand>


> <ZINC ID of Ligand>


> <Number of Protein Chains in Target (>1 implies a multichain complex)>
1

> <BindingDB Target Chain Sequence>
MGAIGLLWLLPLLLSTAAVGSGMGTGQRAGSPAAGPPLQPREPLSYSRLQRKSLAVDFVVPSLFRVYARDLLLPPSSSELKAGRPEARGSLALDCAPLLRLLGPAPGVSWTAGSPAPAEARTLSRVLKGGSVRKLRRAKQLVLELGEEAILEGCVGPPGEAAVGLLQFNLSELFSWWIRQGEGRLRIRLMPEKKASEVGREGRLSAAIRASQPRLLFQIFGTGHSSLESPTNMPSPSPDYFTWNLTWIMKDSFPFLSHRSRYGLECSFDFPCELEYSPPLHDLRNQSWSWRRIPSEEASQMDLLDGPGAERSKEMPRGSFLLLNTSADSKHTILSPWMRSSSEHCTLAVSVHRHLQPSGRYIAQLLPHNEAAREILLMPTPGKHGWTVLQGRIGRPDNPFRVALEYISSGNRSLSAVDFFALKNCSEGTSPGSKMALQSSFTCWNGTVLQLGQACDFHQDCAQGEDESQMCRKLPVGFYCNFEDGFCGWTQGTLSPHTPQWQVRTLKDARFQDHQDHALLLSTTDVPASESATVTSATFPAPIKSSPCELRMSWLIRGVLRGNVSLVLVENKTGKEQGRMVWHVAAYEGLSLWQWMVLPLLDVSDRFWLQMVAWWGQGSRAIVAFDNISISLDCYLTISGEDKILQNTAPKSRNLFERNPNKELKPGENSPRQTPIFDPTVHWLFTTCGASGPHGPTQAQCNNAYQNSNLSVEVGSEGPLKGIQIWKVPATDTYSISGYGAAGGKGGKNTMMRSHGVSVLGIFNLEKDDMLYILVGQQGEDACPSTNQLIQKVCIGENNVIEEEIRVNRSVHEWAGGGGGGGGATYVFKMKDGVPVPLIIAAGGGGRAYGAKTDTFHPERLENNSSVLGLNGNSGAAGGGGGWNDNTSLLWAGKSLQEGATGGHSCPQAMKKWGWETRGGFGGGGGGCSSGGGGGGYIGGNAASNNDPEMDGEDGVSFISPLGILYTPALKVMEGHGEVNIKHYLNCSHCEVDECHMDPESHKVICFCDHGTVLAEDGVSCIVSPTPEPHLPLSLILSVVTSALVAALVLAFSGIMIVYRRKHQELQAMQMELQSPEYKLSKLRTSTIMTDYNPNYCFAGKTSSISDLKEVPRKNITLIRGLGHGAFGEVYEGQVSGMPNDPSPLQVAVKTLPEVCSEQDELDFLMEALIISKFNHQNIVRCIGVSLQSLPRFILLELMAGGDLKSFLRETRPRPSQPSSLAMLDLLHVARDIACGCQYLEENHFIHRDIAARNCLLTCPGPGRVAKIGDFGMARDIYRASYYRKGGCAMLPVKWMPPEAFMEGIFTSKTDTWSFGVLLWEIFSLGYMPYPSKSNQEVLEFVTSGGRMDPPKNCPGPVYRIMTQCWQHQPEDRPNFAIILERIEYCTQDPDVINTALPIEYGPLVEEEEKVPVRPKDPEGVPPLLVSQQAKREEERSPAAPPPLPTTSSGKAAKKPTAAEISVRVPRGPAVEGGHVNMAFSQSNPPSELHKVHGSRNKPTSLWNPTYGSWFTEKPTKKNNPIAKKEPHDRGNLGLEGSCTVPPNVATGRLPGASLLLEPSSLTANMKEVPLFRLRHFPCGNVNYGYQQQGLPLEAATAPGAGHYEDTILKSKNSMNQPGP

> <PDB ID(s) of Target Chain>
2XB7,2XBA,3AOX,5FTO,5FTQ,6E0R,6EBW,6EDL,6MX8

> <UniProt (SwissProt) Recommended Name of Target Chain>
ALK tyrosine kinase receptor

> <UniProt (SwissProt) Entry Name of Target Chain>
ALK_HUMAN

> <UniProt (SwissProt) Primary ID of Target Chain>
Q9UM73

> <UniProt (SwissProt) Secondary ID(s) of Target Chain>
Q4ZFX9,Q53QQ6,Q53RZ4,Q59FI3,Q9Y4K6

> <UniProt (SwissProt) Alternative ID(s) of Target Chain>


> <UniProt (TrEMBL) Submitted Name of Target Chain>


> <UniProt (TrEMBL) Entry Name of Target Chain>


> <UniProt (TrEMBL) Primary ID of Target Chain>


> <UniProt (TrEMBL) Secondary ID(s) of Target Chain>


> <UniProt (TrEMBL) Alternative ID(s) of Target Chain>


$$$$
00202001.cdx
  Mrv0541 03161900132D          

 37 40  0  0  0  0            999 V2000
   -1.4289   -0.3271    0.0000 C   0  0  0  0  0  0  0  0  0  0  0  0
   -2.1434   -0.7396    0.0000 C   0  0  0  0  0  0  0  0  0  0  0  0
   -2.1434   -1.5646    0.0000 C   0  0  0  0  0  0  0  0  0  0  0  0
   -1.4289   -1.9771    0.0000 N   0  0  0  0  0  0  0  0  0  0  0  0
   -0.7145   -1.5646    0.0000 C   0  0  0  0  0  0  0  0  0  0  0  0
   -0.7145   -0.7396    0.0000 N   0  0  0  0  0  0  0  0  0  0  0  0
   -2.8579   -0.3271    0.0000 Cl  0  0  0  0  0  0  0  0  0  0  0  0
    0.0000   -1.9771    0.0000 N   0  0  0  0  0  0  0  0  0  0  0  0
   -0.7145    1.7354    0.0000 C   0  0  0  0  0  0  0  0  0  0  0  0
   -0.7145    0.9104    0.0000 C   0  0  0  0  0  0  0  0  0  0  0  0
    0.0000    0.4979    0.0000 C   0  0  0  0  0  0  0  0  0  0  0  0
    0.7145    0.9104    0.0000 C   0  0  0  0  0  0  0  0  0  0  0  0
    0.7145    1.7354    0.0000 C   0  0  0  0  0  0  0  0  0  0  0  0
    0.0000    2.1479    0.0000 C   0  0  0  0  0  0  0  0  0  0  0  0
   -1.4289    2.1479    0.0000 S   0  0  0  0  0  0  0  0  0  0  0  0
   -2.1434    1.7354    0.0000 C   0  0  0  0  0  0  0  0  0  0  0  0
   -1.4289    0.4979    0.0000 N   0  0  0  0  0  0  0  0  0  0  0  0
    0.7145   -1.5646    0.0000 C   0  0  0  0  0  0  0  0  0  0  0  0
    0.7145   -0.7396    0.0000 C   0  0  0  0  0  0  0  0  0  0  0  0
    1.4289   -1.9771    0.0000 C   0  0  0  0  0  0  0  0  0  0  0  0
    2.1434   -1.5646    0.0000 C   0  0  0  0  0  0  0  0  0  0  0  0
    2.1434   -0.7396    0.0000 C   0  0  0  0  0  0  0  0  0  0  0  0
    1.4289   -0.3271    0.0000 C   0  0  0  0  0  0  0  0  0  0  0  0
    1.4289    0.4979    0.0000 C   0  0  0  0  0  0  0  0  0  0  0  0
    1.4289   -2.8021    0.0000 O   0  0  0  0  0  0  0  0  0  0  0  0
    2.0123   -3.3854    0.0000 C   0  0  0  0  0  0  0  0  0  0  0  0
   -2.8579    2.1479    0.0000 C   0  0  0  0  0  0  0  0  0  0  0  0
   -2.1434    0.9104    0.0000 C   0  0  0  0  0  0  0  0  0  0  0  0
   -2.1434    2.5604    0.0000 O   0  0  0  0  0  0  0  0  0  0  0  0
   -0.7145    2.5604    0.0000 O   0  0  0  0  0  0  0  0  0  0  0  0
    2.1434    0.9104    0.0000 C   0  0  0  0  0  0  0  0  0  0  0  0
    2.1434    1.7354    0.0000 N   0  0  0  0  0  0  0  0  0  0  0  0
    2.8579    2.1479    0.0000 C   0  0  0  0  0  0  0  0  0  0  0  0
    2.8579    2.9729    0.0000 C   0  0  0  0  0  0  0  0  0  0  0  0
    2.1434    3.3854    0.0000 N   0  0  0  0  0  0  0  0  0  0  0  0
    1.4289    2.9729    0.0000 C   0  0  0  0  0  0  0  0  0  0  0  0
    1.4289    2.1479    0.0000 C   0  0  0  0  0  0  0  0  0  0  0  0
 17  1  1  0  0  0  0
  1  2  4  0  0  0  0
  2  3  4  0  0  0  0
  3  4  4  0  0  0  0
  4  5  4  0  0  0  0
  5  6  4  0  0  0  0
  6  1  4  0  0  0  0
  2  7  1  0  0  0  0
  5  8  1  0  0  0  0
  9 10  4  0  0  0  0
 10 11  4  0  0  0  0
 11 12  4  0  0  0  0
 12 13  4  0  0  0  0
 13 14  4  0  0  0  0
 14  9  4  0  0  0  0
  9 15  1  0  0  0  0
 15 16  1  0  0  0  0
 10 17  1  0  0  0  0
  8 18  1  0  0  0  0
 18 19  4  0  0  0  0
 18 20  4  0  0  0  0
 20 21  4  0  0  0  0
 21 22  4  0  0  0  0
 22 23  4  0  0  0  0
 23 19  4  0  0  0  0
 23 24  1  0  0  0  0
 20 25  1  0  0  0  0
 25 26  1  0  0  0  0
 16 27  1  0  0  0  0
 16 28  1  0  0  0  0
 15 29  2  0  0  0  0
 15 30  2  0  0  0  0
 24 31  1  0  0  0  0
 31 32  1  0  0  0  0
 32 33  1  0  0  0  0
 33 34  1  0  0  0  0
 34 35  1  0  0  0  0
 35 36  1  0  0  0  0
 36 37  1  0  0  0  0
 37 32  1  0  0  0  0
M  END
> <From>
www.bindingDB.org

> <BindingDB Reactant_set_id>
556980

> <Ligand InChI>
InChI=1S/C26H33ClN6O3S/c1-18(2)37(34,35)24-7-5-4-6-21(24)30-25-20(27)17-29-26(32-25)31-22-16-19(8-9-23(22)36-3)10-13-33-14-11-28-12-15-33/h4-9,16-18,28H,10-15H2,1-3H3,(H2,29,30,31,32)

> <Ligand InChI Key>
WAFNARGLJYLMMG-UHFFFAOYSA-N

> <BindingDB MonomerID>
292002

> <BindingDB Ligand Name>
US10100019, Example 73

> <Target Name Assigned by Curator or DataSource>
ALK tyrosine kinase receptor

> <Target Source Organism According to Curator or DataSource>
Homo sapiens

> <Ki (nM)>


> <IC50 (nM)>
 1.000

> <Kd (nM)>


> <EC50 (nM)>


> <kon (M-1-s-1)>


> <koff (s-1)>


> <pH>


> <Temp C>
25.00

> <Curation/DataSource>
US Patent

> <Article DOI>
10.1016/j.bmcl.2006.04.076

> <PMID>


> <PubChem AID>


> <Patent Number>
US10100019

> <Authors>
Kim, P; Kim, HR; Cho, SY; Ha, JD; Jung, HJ; Yun, CS; Hwang, JY; Park, CH; Lee, CO; Ahn, S; Chae, CH

> <Institution>
Korea Research Institute of Chemical Technology

> <Link to Ligand in BindingDB>
http://www.bindingdb.org/bind/chemsearch/marvin/MolStructure.jsp?monomerid=292002

> <Link to Ligand-Target Pair in BindingDB>
http://www.bindingdb.org/jsp/dbsearch/PrimarySearch_ki.jsp?energyterm=kJ/mole&tag=pol&polymerid=5809&target=ALK+tyrosine+kinase+receptor&column=ki&startPg=0&Increment=50&submit=Search

> <Link to Ligand-Target Pair in BindingDB>
http://www.bindingdb.org/jsp/dbsearch/PrimarySearch_ki.jsp?energyterm=kJ/mole&tag=r21&monomerid=292002&enzyme=ALK+tyrosine+kinase+receptor&column=ki&startPg=0&Increment=50&submit=Search

> <Ligand HET ID in PDB>


> <PDB ID(s) for Ligand-Target Complex>


> <PubChem CID>
134451513

> <PubChem SID>
381612301

> <ChEBI ID of Ligand>


> <ChEMBL ID of Ligand>


> <DrugBank ID of Ligand>


> <IUPHAR_GRAC ID of Ligand>


> <KEGG ID of Ligand>


> <ZINC ID of Ligand>


> <Number of Protein Chains in Target (>1 implies a multichain complex)>
1

> <BindingDB Target Chain Sequence>
MGAIGLLWLLPLLLSTAAVGSGMGTGQRAGSPAAGPPLQPREPLSYSRLQRKSLAVDFVVPSLFRVYARDLLLPPSSSELKAGRPEARGSLALDCAPLLRLLGPAPGVSWTAGSPAPAEARTLSRVLKGGSVRKLRRAKQLVLELGEEAILEGCVGPPGEAAVGLLQFNLSELFSWWIRQGEGRLRIRLMPEKKASEVGREGRLSAAIRASQPRLLFQIFGTGHSSLESPTNMPSPSPDYFTWNLTWIMKDSFPFLSHRSRYGLECSFDFPCELEYSPPLHDLRNQSWSWRRIPSEEASQMDLLDGPGAERSKEMPRGSFLLLNTSADSKHTILSPWMRSSSEHCTLAVSVHRHLQPSGRYIAQLLPHNEAAREILLMPTPGKHGWTVLQGRIGRPDNPFRVALEYISSGNRSLSAVDFFALKNCSEGTSPGSKMALQSSFTCWNGTVLQLGQACDFHQDCAQGEDESQMCRKLPVGFYCNFEDGFCGWTQGTLSPHTPQWQVRTLKDARFQDHQDHALLLSTTDVPASESATVTSATFPAPIKSSPCELRMSWLIRGVLRGNVSLVLVENKTGKEQGRMVWHVAAYEGLSLWQWMVLPLLDVSDRFWLQMVAWWGQGSRAIVAFDNISISLDCYLTISGEDKILQNTAPKSRNLFERNPNKELKPGENSPRQTPIFDPTVHWLFTTCGASGPHGPTQAQCNNAYQNSNLSVEVGSEGPLKGIQIWKVPATDTYSISGYGAAGGKGGKNTMMRSHGVSVLGIFNLEKDDMLYILVGQQGEDACPSTNQLIQKVCIGENNVIEEEIRVNRSVHEWAGGGGGGGGATYVFKMKDGVPVPLIIAAGGGGRAYGAKTDTFHPERLENNSSVLGLNGNSGAAGGGGGWNDNTSLLWAGKSLQEGATGGHSCPQAMKKWGWETRGGFGGGGGGCSSGGGGGGYIGGNAASNNDPEMDGEDGVSFISPLGILYTPALKVMEGHGEVNIKHYLNCSHCEVDECHMDPESHKVICFCDHGTVLAEDGVSCIVSPTPEPHLPLSLILSVVTSALVAALVLAFSGIMIVYRRKHQELQAMQMELQSPEYKLSKLRTSTIMTDYNPNYCFAGKTSSISDLKEVPRKNITLIRGLGHGAFGEVYEGQVSGMPNDPSPLQVAVKTLPEVCSEQDELDFLMEALIISKFNHQNIVRCIGVSLQSLPRFILLELMAGGDLKSFLRETRPRPSQPSSLAMLDLLHVARDIACGCQYLEENHFIHRDIAARNCLLTCPGPGRVAKIGDFGMARDIYRASYYRKGGCAMLPVKWMPPEAFMEGIFTSKTDTWSFGVLLWEIFSLGYMPYPSKSNQEVLEFVTSGGRMDPPKNCPGPVYRIMTQCWQHQPEDRPNFAIILERIEYCTQDPDVINTALPIEYGPLVEEEEKVPVRPKDPEGVPPLLVSQQAKREEERSPAAPPPLPTTSSGKAAKKPTAAEISVRVPRGPAVEGGHVNMAFSQSNPPSELHKVHGSRNKPTSLWNPTYGSWFTEKPTKKNNPIAKKEPHDRGNLGLEGSCTVPPNVATGRLPGASLLLEPSSLTANMKEVPLFRLRHFPCGNVNYGYQQQGLPLEAATAPGAGHYEDTILKSKNSMNQPGP

> <PDB ID(s) of Target Chain>
2XB7,2XBA,3AOX,5FTO,5FTQ,6E0R,6EBW,6EDL,6MX8

> <UniProt (SwissProt) Recommended Name of Target Chain>
ALK tyrosine kinase receptor

> <UniProt (SwissProt) Entry Name of Target Chain>
ALK_HUMAN

> <UniProt (SwissProt) Primary ID of Target Chain>
Q9UM73

> <UniProt (SwissProt) Secondary ID(s) of Target Chain>
Q4ZFX9,Q53QQ6,Q53RZ4,Q59FI3,Q9Y4K6

> <UniProt (SwissProt) Alternative ID(s) of Target Chain>


> <UniProt (TrEMBL) Submitted Name of Target Chain>


> <UniProt (TrEMBL) Entry Name of Target Chain>


> <UniProt (TrEMBL) Primary ID of Target Chain>


> <UniProt (TrEMBL) Secondary ID(s) of Target Chain>


> <UniProt (TrEMBL) Alternative ID(s) of Target Chain>


$$$$

  SciTegic09291413392D

 34 37  0  0  0  0            999 V2000
   24.3466  -17.8503    0.0000 S   0  0
   23.5218  -17.8501    0.0000 O   0  0
   23.9340  -18.5644    0.0000 O   0  0
   18.6353  -17.0305    0.0000 C   0  0
   19.3515  -16.6172    0.0000 C   0  0
   19.3487  -15.7870    0.0000 C   0  0
   18.6335  -15.3780    0.0000 C   0  0
   20.0664  -17.0285    0.0000 N   0  0
   20.7800  -16.6150    0.0000 C   0  0
   21.4915  -17.0267    0.0000 N   0  0
   22.2046  -16.6139    0.0000 C   0  0
   22.2038  -15.7883    0.0000 C   0  0
   21.4839  -15.3772    0.0000 C   0  0
   20.7737  -15.7924    0.0000 N   0  0
   22.9168  -15.3738    0.0000 Cl  0  0
   22.9193  -17.0255    0.0000 N   0  0
   23.6331  -16.6124    0.0000 C   0  0
   24.3468  -17.0255    0.0000 C   0  0
   25.0601  -16.6132    0.0000 C   0  0
   25.0597  -15.7875    0.0000 C   0  0
   24.3399  -15.3761    0.0000 C   0  0
   23.6296  -15.7910    0.0000 C   0  0
   25.0607  -18.2629    0.0000 C   0  0
   25.0604  -19.0876    0.0000 C   0  0
   25.7750  -17.8508    0.0000 C   0  0
   17.9234  -15.7911    0.0000 C   0  0
   17.9207  -16.6177    0.0000 C   0  0
   17.2701  -17.1369    0.0000 C   0  0
   17.2729  -15.2716    0.0000 C   0  0
   16.4609  -16.9556    0.0000 C   0  0
   16.4620  -15.4570    0.0000 C   0  0
   16.1035  -16.2073    0.0000 N   0  0
   15.2788  -16.2072    0.0000 C   0  0
   17.4553  -17.9405    0.0000 C   0  0
  2  1  2  0
  1  3  2  0
 27  4  1  0
  4  5  2  0
  5  6  1  0
  6  7  2  0
  7 26  1  0
  5  8  1  0
  8  9  1  0
  9 10  2  0
 10 11  1  0
 11 12  2  0
 12 13  1  0
 13 14  2  0
 14  9  1  0
 12 15  1  0
 11 16  1  0
 16 17  1  0
 17 18  2  0
 18 19  1  0
 19 20  2  0
 20 21  1  0
 21 22  2  0
 22 17  1  0
 18  1  1  0
  1 23  1  0
 23 24  1  0
 23 25  1  0
 26 27  2  0
 27 28  1  0
 26 29  1  0
 28 30  1  0
 29 31  1  0
 30 32  1  0
 31 32  1  0
 32 33  1  0
 28 34  1  0
M  END
> <From>
www.bindingDB.org

> <BindingDB Reactant_set_id>
50090173

> <Ligand InChI>
InChI=1S/C25H30ClN5O2S/c1-16(2)34(32,33)23-8-6-5-7-22(23)29-24-21(26)14-27-25(30-24)28-19-10-9-18-11-12-31(4)15-17(3)20(18)13-19/h5-10,13-14,16-17H,11-12,15H2,1-4H3,(H2,27,28,29,30)

> <Ligand InChI Key>
RMBJAPLSOZTGDA-UHFFFAOYSA-N

> <BindingDB MonomerID>
50010458

> <BindingDB Ligand Name>
CHEMBL3263990

> <Target Name Assigned by Curator or DataSource>
ALK tyrosine kinase receptor

> <Target Source Organism According to Curator or DataSource>
Homo sapiens

> <Ki (nM)>


> <IC50 (nM)>
 3.5

> <Kd (nM)>


> <EC50 (nM)>


> <kon (M-1-s-1)>


> <koff (s-1)>


> <pH>


> <Temp C>


> <Curation/DataSource>
ChEMBL

> <Article DOI>
10.1021/ml400373j

> <PMID>
24900831

> <PubChem AID>


> <Patent Number>


> <Authors>
Liu, Z; Ai, J; Peng, X; Song, Z; Wu, K; Zhang, J; Yao, Q; Chen, Y; Ji, Y; Yang, Y; Geng, M; Zhang, A

> <Institution>
State Key Laboratory of Drug Research

> <Link to Ligand in BindingDB>
http://www.bindingdb.org/bind/chemsearch/marvin/MolStructure.jsp?monomerid=50010458

> <Link to Ligand-Target Pair in BindingDB>
http://www.bindingdb.org/jsp/dbsearch/PrimarySearch_ki.jsp?energyterm=kJ/mole&tag=pol&polymerid=5809&target=ALK+tyrosine+kinase+receptor&column=ki&startPg=0&Increment=50&submit=Search

> <Link to Ligand-Target Pair in BindingDB>
http://www.bindingdb.org/jsp/dbsearch/PrimarySearch_ki.jsp?energyterm=kJ/mole&tag=r21&monomerid=50010458&enzyme=ALK+tyrosine+kinase+receptor&column=ki&startPg=0&Increment=50&submit=Search

> <Ligand HET ID in PDB>


> <PDB ID(s) for Ligand-Target Complex>


> <PubChem CID>
76281907

> <PubChem SID>
242057606

> <ChEBI ID of Ligand>


> <ChEMBL ID of Ligand>
CHEMBL3263990

> <DrugBank ID of Ligand>


> <IUPHAR_GRAC ID of Ligand>


> <KEGG ID of Ligand>


> <ZINC ID of Ligand>


> <Number of Protein Chains in Target (>1 implies a multichain complex)>
1

> <BindingDB Target Chain Sequence>
MGAIGLLWLLPLLLSTAAVGSGMGTGQRAGSPAAGPPLQPREPLSYSRLQRKSLAVDFVVPSLFRVYARDLLLPPSSSELKAGRPEARGSLALDCAPLLRLLGPAPGVSWTAGSPAPAEARTLSRVLKGGSVRKLRRAKQLVLELGEEAILEGCVGPPGEAAVGLLQFNLSELFSWWIRQGEGRLRIRLMPEKKASEVGREGRLSAAIRASQPRLLFQIFGTGHSSLESPTNMPSPSPDYFTWNLTWIMKDSFPFLSHRSRYGLECSFDFPCELEYSPPLHDLRNQSWSWRRIPSEEASQMDLLDGPGAERSKEMPRGSFLLLNTSADSKHTILSPWMRSSSEHCTLAVSVHRHLQPSGRYIAQLLPHNEAAREILLMPTPGKHGWTVLQGRIGRPDNPFRVALEYISSGNRSLSAVDFFALKNCSEGTSPGSKMALQSSFTCWNGTVLQLGQACDFHQDCAQGEDESQMCRKLPVGFYCNFEDGFCGWTQGTLSPHTPQWQVRTLKDARFQDHQDHALLLSTTDVPASESATVTSATFPAPIKSSPCELRMSWLIRGVLRGNVSLVLVENKTGKEQGRMVWHVAAYEGLSLWQWMVLPLLDVSDRFWLQMVAWWGQGSRAIVAFDNISISLDCYLTISGEDKILQNTAPKSRNLFERNPNKELKPGENSPRQTPIFDPTVHWLFTTCGASGPHGPTQAQCNNAYQNSNLSVEVGSEGPLKGIQIWKVPATDTYSISGYGAAGGKGGKNTMMRSHGVSVLGIFNLEKDDMLYILVGQQGEDACPSTNQLIQKVCIGENNVIEEEIRVNRSVHEWAGGGGGGGGATYVFKMKDGVPVPLIIAAGGGGRAYGAKTDTFHPERLENNSSVLGLNGNSGAAGGGGGWNDNTSLLWAGKSLQEGATGGHSCPQAMKKWGWETRGGFGGGGGGCSSGGGGGGYIGGNAASNNDPEMDGEDGVSFISPLGILYTPALKVMEGHGEVNIKHYLNCSHCEVDECHMDPESHKVICFCDHGTVLAEDGVSCIVSPTPEPHLPLSLILSVVTSALVAALVLAFSGIMIVYRRKHQELQAMQMELQSPEYKLSKLRTSTIMTDYNPNYCFAGKTSSISDLKEVPRKNITLIRGLGHGAFGEVYEGQVSGMPNDPSPLQVAVKTLPEVCSEQDELDFLMEALIISKFNHQNIVRCIGVSLQSLPRFILLELMAGGDLKSFLRETRPRPSQPSSLAMLDLLHVARDIACGCQYLEENHFIHRDIAARNCLLTCPGPGRVAKIGDFGMARDIYRASYYRKGGCAMLPVKWMPPEAFMEGIFTSKTDTWSFGVLLWEIFSLGYMPYPSKSNQEVLEFVTSGGRMDPPKNCPGPVYRIMTQCWQHQPEDRPNFAIILERIEYCTQDPDVINTALPIEYGPLVEEEEKVPVRPKDPEGVPPLLVSQQAKREEERSPAAPPPLPTTSSGKAAKKPTAAEISVRVPRGPAVEGGHVNMAFSQSNPPSELHKVHGSRNKPTSLWNPTYGSWFTEKPTKKNNPIAKKEPHDRGNLGLEGSCTVPPNVATGRLPGASLLLEPSSLTANMKEVPLFRLRHFPCGNVNYGYQQQGLPLEAATAPGAGHYEDTILKSKNSMNQPGP

> <PDB ID(s) of Target Chain>
2XB7,2XBA,3AOX,5FTO,5FTQ,6E0R,6EBW,6EDL,6MX8

> <UniProt (SwissProt) Recommended Name of Target Chain>
ALK tyrosine kinase receptor

> <UniProt (SwissProt) Entry Name of Target Chain>
ALK_HUMAN

> <UniProt (SwissProt) Primary ID of Target Chain>
Q9UM73

> <UniProt (SwissProt) Secondary ID(s) of Target Chain>
Q4ZFX9,Q53QQ6,Q53RZ4,Q59FI3,Q9Y4K6

> <UniProt (SwissProt) Alternative ID(s) of Target Chain>


> <UniProt (TrEMBL) Submitted Name of Target Chain>


> <UniProt (TrEMBL) Entry Name of Target Chain>


> <UniProt (TrEMBL) Primary ID of Target Chain>


> <UniProt (TrEMBL) Secondary ID(s) of Target Chain>


> <UniProt (TrEMBL) Alternative ID(s) of Target Chain>


$$$$

  SciTegic09291413392D

 34 38  0  0  0  0            999 V2000
   24.3410  -17.8462    0.0000 S   0  0
   23.5164  -17.8460    0.0000 O   0  0
   23.9285  -18.5601    0.0000 O   0  0
   18.6310  -17.0266    0.0000 C   0  0
   19.3471  -16.6134    0.0000 C   0  0
   19.3442  -15.7834    0.0000 C   0  0
   18.6293  -15.3744    0.0000 C   0  0
   20.0618  -17.0246    0.0000 N   0  0
   20.7752  -16.6112    0.0000 C   0  0
   21.4865  -17.0227    0.0000 N   0  0
   22.1995  -16.6101    0.0000 C   0  0
   22.1987  -15.7847    0.0000 C   0  0
   21.4790  -15.3736    0.0000 C   0  0
   20.7689  -15.7887    0.0000 N   0  0
   22.9115  -15.3703    0.0000 Cl  0  0
   22.9141  -17.0216    0.0000 N   0  0
   23.6276  -16.6085    0.0000 C   0  0
   24.3412  -17.0216    0.0000 C   0  0
   25.0543  -16.6094    0.0000 C   0  0
   25.0539  -15.7839    0.0000 C   0  0
   24.3343  -15.3725    0.0000 C   0  0
   23.6242  -15.7873    0.0000 C   0  0
   25.0549  -18.2587    0.0000 C   0  0
   17.9192  -15.7874    0.0000 C   0  0
   17.9166  -16.6139    0.0000 C   0  0
   17.2661  -17.1329    0.0000 C   0  0
   17.2689  -15.2681    0.0000 C   0  0
   16.4571  -16.9517    0.0000 C   0  0
   16.4582  -15.4535    0.0000 C   0  0
   16.0998  -16.2035    0.0000 N   0  0
   15.2753  -16.2034    0.0000 C   0  0
   17.4513  -17.9364    0.0000 C   0  0
   25.4678  -18.9696    0.0000 C   0  0
   25.8803  -18.2556    0.0000 C   0  0
  2  1  2  0
  1  3  2  0
 25  4  1  0
  4  5  2  0
  5  6  1  0
  6  7  2  0
  7 24  1  0
  5  8  1  0
  8  9  1  0
  9 10  2  0
 10 11  1  0
 11 12  2  0
 12 13  1  0
 13 14  2  0
 14  9  1  0
 12 15  1  0
 11 16  1  0
 16 17  1  0
 17 18  2  0
 18 19  1  0
 19 20  2  0
 20 21  1  0
 21 22  2  0
 22 17  1  0
 18  1  1  0
  1 23  1  0
 24 25  2  0
 25 26  1  0
 24 27  1  0
 26 28  1  0
 27 29  1  0
 28 30  1  0
 29 30  1  0
 30 31  1  0
 26 32  1  0
 33 23  1  0
 34 33  1  0
 23 34  1  0
M  END
> <From>
www.bindingDB.org

> <BindingDB Reactant_set_id>
50090174

> <Ligand InChI>
InChI=1S/C25H28ClN5O2S/c1-16-15-31(2)12-11-17-7-8-18(13-20(16)17)28-25-27-14-21(26)24(30-25)29-22-5-3-4-6-23(22)34(32,33)19-9-10-19/h3-8,13-14,16,19H,9-12,15H2,1-2H3,(H2,27,28,29,30)

> <Ligand InChI Key>
DWSUPVLNYBTFKY-UHFFFAOYSA-N

> <BindingDB MonomerID>
50010459

> <BindingDB Ligand Name>
CHEMBL3263991

> <Target Name Assigned by Curator or DataSource>
ALK tyrosine kinase receptor

> <Target Source Organism According to Curator or DataSource>
Homo sapiens

> <Ki (nM)>


> <IC50 (nM)>
 7.1

> <Kd (nM)>


> <EC50 (nM)>


> <kon (M-1-s-1)>


> <koff (s-1)>


> <pH>


> <Temp C>


> <Curation/DataSource>
ChEMBL

> <Article DOI>
10.1021/ml400373j

> <PMID>
24900831

> <PubChem AID>


> <Patent Number>


> <Authors>
Liu, Z; Ai, J; Peng, X; Song, Z; Wu, K; Zhang, J; Yao, Q; Chen, Y; Ji, Y; Yang, Y; Geng, M; Zhang, A

> <Institution>
State Key Laboratory of Drug Research

> <Link to Ligand in BindingDB>
http://www.bindingdb.org/bind/chemsearch/marvin/MolStructure.jsp?monomerid=50010459

> <Link to Ligand-Target Pair in BindingDB>
http://www.bindingdb.org/jsp/dbsearch/PrimarySearch_ki.jsp?energyterm=kJ/mole&tag=pol&polymerid=5809&target=ALK+tyrosine+kinase+receptor&column=ki&startPg=0&Increment=50&submit=Search

> <Link to Ligand-Target Pair in BindingDB>
http://www.bindingdb.org/jsp/dbsearch/PrimarySearch_ki.jsp?energyterm=kJ/mole&tag=r21&monomerid=50010459&enzyme=ALK+tyrosine+kinase+receptor&column=ki&startPg=0&Increment=50&submit=Search

> <Ligand HET ID in PDB>


> <PDB ID(s) for Ligand-Target Complex>


> <PubChem CID>
90655792

> <PubChem SID>
242057607

> <ChEBI ID of Ligand>


> <ChEMBL ID of Ligand>
CHEMBL3263991

> <DrugBank ID of Ligand>


> <IUPHAR_GRAC ID of Ligand>


> <KEGG ID of Ligand>


> <ZINC ID of Ligand>


> <Number of Protein Chains in Target (>1 implies a multichain complex)>
1

> <BindingDB Target Chain Sequence>
MGAIGLLWLLPLLLSTAAVGSGMGTGQRAGSPAAGPPLQPREPLSYSRLQRKSLAVDFVVPSLFRVYARDLLLPPSSSELKAGRPEARGSLALDCAPLLRLLGPAPGVSWTAGSPAPAEARTLSRVLKGGSVRKLRRAKQLVLELGEEAILEGCVGPPGEAAVGLLQFNLSELFSWWIRQGEGRLRIRLMPEKKASEVGREGRLSAAIRASQPRLLFQIFGTGHSSLESPTNMPSPSPDYFTWNLTWIMKDSFPFLSHRSRYGLECSFDFPCELEYSPPLHDLRNQSWSWRRIPSEEASQMDLLDGPGAERSKEMPRGSFLLLNTSADSKHTILSPWMRSSSEHCTLAVSVHRHLQPSGRYIAQLLPHNEAAREILLMPTPGKHGWTVLQGRIGRPDNPFRVALEYISSGNRSLSAVDFFALKNCSEGTSPGSKMALQSSFTCWNGTVLQLGQACDFHQDCAQGEDESQMCRKLPVGFYCNFEDGFCGWTQGTLSPHTPQWQVRTLKDARFQDHQDHALLLSTTDVPASESATVTSATFPAPIKSSPCELRMSWLIRGVLRGNVSLVLVENKTGKEQGRMVWHVAAYEGLSLWQWMVLPLLDVSDRFWLQMVAWWGQGSRAIVAFDNISISLDCYLTISGEDKILQNTAPKSRNLFERNPNKELKPGENSPRQTPIFDPTVHWLFTTCGASGPHGPTQAQCNNAYQNSNLSVEVGSEGPLKGIQIWKVPATDTYSISGYGAAGGKGGKNTMMRSHGVSVLGIFNLEKDDMLYILVGQQGEDACPSTNQLIQKVCIGENNVIEEEIRVNRSVHEWAGGGGGGGGATYVFKMKDGVPVPLIIAAGGGGRAYGAKTDTFHPERLENNSSVLGLNGNSGAAGGGGGWNDNTSLLWAGKSLQEGATGGHSCPQAMKKWGWETRGGFGGGGGGCSSGGGGGGYIGGNAASNNDPEMDGEDGVSFISPLGILYTPALKVMEGHGEVNIKHYLNCSHCEVDECHMDPESHKVICFCDHGTVLAEDGVSCIVSPTPEPHLPLSLILSVVTSALVAALVLAFSGIMIVYRRKHQELQAMQMELQSPEYKLSKLRTSTIMTDYNPNYCFAGKTSSISDLKEVPRKNITLIRGLGHGAFGEVYEGQVSGMPNDPSPLQVAVKTLPEVCSEQDELDFLMEALIISKFNHQNIVRCIGVSLQSLPRFILLELMAGGDLKSFLRETRPRPSQPSSLAMLDLLHVARDIACGCQYLEENHFIHRDIAARNCLLTCPGPGRVAKIGDFGMARDIYRASYYRKGGCAMLPVKWMPPEAFMEGIFTSKTDTWSFGVLLWEIFSLGYMPYPSKSNQEVLEFVTSGGRMDPPKNCPGPVYRIMTQCWQHQPEDRPNFAIILERIEYCTQDPDVINTALPIEYGPLVEEEEKVPVRPKDPEGVPPLLVSQQAKREEERSPAAPPPLPTTSSGKAAKKPTAAEISVRVPRGPAVEGGHVNMAFSQSNPPSELHKVHGSRNKPTSLWNPTYGSWFTEKPTKKNNPIAKKEPHDRGNLGLEGSCTVPPNVATGRLPGASLLLEPSSLTANMKEVPLFRLRHFPCGNVNYGYQQQGLPLEAATAPGAGHYEDTILKSKNSMNQPGP

> <PDB ID(s) of Target Chain>
2XB7,2XBA,3AOX,5FTO,5FTQ,6E0R,6EBW,6EDL,6MX8

> <UniProt (SwissProt) Recommended Name of Target Chain>
ALK tyrosine kinase receptor

> <UniProt (SwissProt) Entry Name of Target Chain>
ALK_HUMAN

> <UniProt (SwissProt) Primary ID of Target Chain>
Q9UM73

> <UniProt (SwissProt) Secondary ID(s) of Target Chain>
Q4ZFX9,Q53QQ6,Q53RZ4,Q59FI3,Q9Y4K6

> <UniProt (SwissProt) Alternative ID(s) of Target Chain>


> <UniProt (TrEMBL) Submitted Name of Target Chain>


> <UniProt (TrEMBL) Entry Name of Target Chain>


> <UniProt (TrEMBL) Primary ID of Target Chain>


> <UniProt (TrEMBL) Secondary ID(s) of Target Chain>


> <UniProt (TrEMBL) Alternative ID(s) of Target Chain>


$$$$
BindingDB_50044303_mol_1

Vconf v2.0 Academic SN VC001-00000579
 32 34  0  0  0  0  0  0  0  0999 V2000
   29.2856  -17.0708    0.0000 C   0  0  0  0  0  0  0  0  0  0  0
   29.6981  -17.7825    0.0000 C   0  0  0  0  0  0  0  0  0  0  0
   28.4606  -17.0708    0.0000 O   0  0  0  0  0  0  0  0  0  0  0
   29.6981  -16.3549    0.0000 N   0  0  0  0  0  0  0  0  0  0  0
   29.2856  -15.6391    0.0000 C   0  0  0  0  0  0  0  0  0  0  0
   29.6981  -14.9274    0.0000 C   0  0  0  0  0  0  0  0  0  0  0
   29.2856  -14.2116    0.0000 C   0  0  0  0  0  0  0  0  0  0  0
   28.4606  -14.2116    0.0000 C   0  0  0  0  0  0  0  0  0  0  0
   28.0481  -14.9274    0.0000 C   0  0  0  0  0  0  0  0  0  0  0
   28.4606  -15.6391    0.0000 C   0  0  0  0  0  0  0  0  0  0  0
   29.6981  -13.4998    0.0000 N   0  0  0  0  0  0  0  0  0  0  0
   29.2856  -12.7840    0.0000 C   0  0  0  0  0  0  0  0  0  0  0
   29.6981  -12.0681    0.0000 N   0  0  0  0  0  0  0  0  0  0  0
   29.2856  -11.3523    0.0000 C   0  0  0  0  0  0  0  0  0  0  0
   28.4606  -11.3523    0.0000 C   0  0  0  0  0  0  0  0  0  0  0
   28.0481  -12.0681    0.0000 C   0  0  0  0  0  0  0  0  0  0  0
   28.4606  -12.7840    0.0000 N   0  0  0  0  0  0  0  0  0  0  0
   29.6981  -10.6406    0.0000 N   0  0  0  0  0  0  0  0  0  0  0
   29.2856   -9.9247    0.0000 C   0  0  0  0  0  0  0  0  0  0  0
   29.6981   -9.2089    0.0000 C   0  0  0  0  0  0  0  0  0  0  0
   29.2856   -8.4971    0.0000 C   0  0  0  0  0  0  0  0  0  0  0
   28.4606   -8.4971    0.0000 C   0  0  0  0  0  0  0  0  0  0  0
   28.0481   -9.2089    0.0000 C   0  0  0  0  0  0  0  0  0  0  0
   28.4606   -9.9247    0.0000 C   0  0  0  0  0  0  0  0  0  0  0
   30.5231   -9.2089    0.0000 S   0  0  0  0  0  0  0  0  0  0  0
   30.5231  -10.0339    0.0000 O   0  0  0  0  0  0  0  0  0  0  0
   30.9383   -8.4939    0.0000 C   0  0  0  0  0  0  0  0  0  0  0
   30.5317   -7.7788    0.0000 C   0  0  0  0  0  0  0  0  0  0  0
   31.7645   -8.4985    0.0000 C   0  0  0  0  0  0  0  0  0  0  0
   28.0481  -10.6406    0.0000 Cl  0  0  0  0  0  0  0  0  0  0  0
   30.5231  -17.7825    0.0000 N   0  0  0  0  0  0  0  0  0  0  0
   31.2330   -9.6208    0.0000 O   0  0  0  0  0  0  0  0  0  0  0
  1  2  1  0  0  0  0
  1  3  2  0  0  0  0
  1  4  1  0  0  0  0
  5  6  4  0  0  0  0
  6  7  4  0  0  0  0
  7  8  4  0  0  0  0
  8  9  4  0  0  0  0
  9 10  4  0  0  0  0
  5 10  4  0  0  0  0
 12 13  4  0  0  0  0
 13 14  4  0  0  0  0
 14 15  4  0  0  0  0
 15 16  4  0  0  0  0
 16 17  4  0  0  0  0
 12 17  4  0  0  0  0
 19 20  4  0  0  0  0
 20 21  4  0  0  0  0
 21 22  4  0  0  0  0
 22 23  4  0  0  0  0
 23 24  4  0  0  0  0
 19 24  4  0  0  0  0
 25 26  2  0  0  0  0
 27 28  1  0  0  0  0
 27 29  1  0  0  0  0
 25 27  1  0  0  0  0
 20 25  1  0  0  0  0
 18 19  1  0  0  0  0
 14 18  1  0  0  0  0
 15 30  1  0  0  0  0
 11 12  1  0  0  0  0
  7 11  1  0  0  0  0
  4  5  1  0  0  0  0
  2 31  1  0  0  0  0
 25 32  2  0  0  0  0
M  END
> <From>
www.bindingDB.org

> <BindingDB Reactant_set_id>
50266081

> <Ligand InChI>
InChI=1S/C21H23ClN6O3S/c1-13(2)32(30,31)18-9-4-3-8-17(18)27-20-16(22)12-24-21(28-20)26-15-7-5-6-14(10-15)25-19(29)11-23/h3-10,12-13H,11,23H2,1-2H3,(H,25,29)(H2,24,26,27,28)

> <Ligand InChI Key>
BDVGHJLTQZVVPA-UHFFFAOYSA-N

> <BindingDB MonomerID>
50044303

> <BindingDB Ligand Name>
CHEMBL3357439

> <Target Name Assigned by Curator or DataSource>
ALK tyrosine kinase receptor

> <Target Source Organism According to Curator or DataSource>
Homo sapiens

> <Ki (nM)>


> <IC50 (nM)>
 2.7

> <Kd (nM)>


> <EC50 (nM)>


> <kon (M-1-s-1)>


> <koff (s-1)>


> <pH>


> <Temp C>


> <Curation/DataSource>
ChEMBL

> <Article DOI>
10.1021/jm5005144

> <PMID>
24785465

> <PubChem AID>


> <Patent Number>


> <Authors>
Song, Z; Yang, Y; Liu, Z; Peng, X; Guo, J; Yang, X; Wu, K; Ai, J; Ding, J; Geng, M; Zhang, A

> <Institution>
Chinese Academy of Sciences

> <Link to Ligand in BindingDB>
http://www.bindingdb.org/bind/chemsearch/marvin/MolStructure.jsp?monomerid=50044303

> <Link to Ligand-Target Pair in BindingDB>
http://www.bindingdb.org/jsp/dbsearch/PrimarySearch_ki.jsp?energyterm=kJ/mole&tag=pol&polymerid=5809&target=ALK+tyrosine+kinase+receptor&column=ki&startPg=0&Increment=50&submit=Search

> <Link to Ligand-Target Pair in BindingDB>
http://www.bindingdb.org/jsp/dbsearch/PrimarySearch_ki.jsp?energyterm=kJ/mole&tag=r21&monomerid=50044303&enzyme=ALK+tyrosine+kinase+receptor&column=ki&startPg=0&Increment=50&submit=Search

> <Ligand HET ID in PDB>


> <PDB ID(s) for Ligand-Target Complex>


> <PubChem CID>
77461036

> <PubChem SID>
313068198

> <ChEBI ID of Ligand>


> <ChEMBL ID of Ligand>
CHEMBL3357439

> <DrugBank ID of Ligand>


> <IUPHAR_GRAC ID of Ligand>


> <KEGG ID of Ligand>


> <ZINC ID of Ligand>


> <Number of Protein Chains in Target (>1 implies a multichain complex)>
1

> <BindingDB Target Chain Sequence>
MGAIGLLWLLPLLLSTAAVGSGMGTGQRAGSPAAGPPLQPREPLSYSRLQRKSLAVDFVVPSLFRVYARDLLLPPSSSELKAGRPEARGSLALDCAPLLRLLGPAPGVSWTAGSPAPAEARTLSRVLKGGSVRKLRRAKQLVLELGEEAILEGCVGPPGEAAVGLLQFNLSELFSWWIRQGEGRLRIRLMPEKKASEVGREGRLSAAIRASQPRLLFQIFGTGHSSLESPTNMPSPSPDYFTWNLTWIMKDSFPFLSHRSRYGLECSFDFPCELEYSPPLHDLRNQSWSWRRIPSEEASQMDLLDGPGAERSKEMPRGSFLLLNTSADSKHTILSPWMRSSSEHCTLAVSVHRHLQPSGRYIAQLLPHNEAAREILLMPTPGKHGWTVLQGRIGRPDNPFRVALEYISSGNRSLSAVDFFALKNCSEGTSPGSKMALQSSFTCWNGTVLQLGQACDFHQDCAQGEDESQMCRKLPVGFYCNFEDGFCGWTQGTLSPHTPQWQVRTLKDARFQDHQDHALLLSTTDVPASESATVTSATFPAPIKSSPCELRMSWLIRGVLRGNVSLVLVENKTGKEQGRMVWHVAAYEGLSLWQWMVLPLLDVSDRFWLQMVAWWGQGSRAIVAFDNISISLDCYLTISGEDKILQNTAPKSRNLFERNPNKELKPGENSPRQTPIFDPTVHWLFTTCGASGPHGPTQAQCNNAYQNSNLSVEVGSEGPLKGIQIWKVPATDTYSISGYGAAGGKGGKNTMMRSHGVSVLGIFNLEKDDMLYILVGQQGEDACPSTNQLIQKVCIGENNVIEEEIRVNRSVHEWAGGGGGGGGATYVFKMKDGVPVPLIIAAGGGGRAYGAKTDTFHPERLENNSSVLGLNGNSGAAGGGGGWNDNTSLLWAGKSLQEGATGGHSCPQAMKKWGWETRGGFGGGGGGCSSGGGGGGYIGGNAASNNDPEMDGEDGVSFISPLGILYTPALKVMEGHGEVNIKHYLNCSHCEVDECHMDPESHKVICFCDHGTVLAEDGVSCIVSPTPEPHLPLSLILSVVTSALVAALVLAFSGIMIVYRRKHQELQAMQMELQSPEYKLSKLRTSTIMTDYNPNYCFAGKTSSISDLKEVPRKNITLIRGLGHGAFGEVYEGQVSGMPNDPSPLQVAVKTLPEVCSEQDELDFLMEALIISKFNHQNIVRCIGVSLQSLPRFILLELMAGGDLKSFLRETRPRPSQPSSLAMLDLLHVARDIACGCQYLEENHFIHRDIAARNCLLTCPGPGRVAKIGDFGMARDIYRASYYRKGGCAMLPVKWMPPEAFMEGIFTSKTDTWSFGVLLWEIFSLGYMPYPSKSNQEVLEFVTSGGRMDPPKNCPGPVYRIMTQCWQHQPEDRPNFAIILERIEYCTQDPDVINTALPIEYGPLVEEEEKVPVRPKDPEGVPPLLVSQQAKREEERSPAAPPPLPTTSSGKAAKKPTAAEISVRVPRGPAVEGGHVNMAFSQSNPPSELHKVHGSRNKPTSLWNPTYGSWFTEKPTKKNNPIAKKEPHDRGNLGLEGSCTVPPNVATGRLPGASLLLEPSSLTANMKEVPLFRLRHFPCGNVNYGYQQQGLPLEAATAPGAGHYEDTILKSKNSMNQPGP

> <PDB ID(s) of Target Chain>
2XB7,2XBA,3AOX,5FTO,5FTQ,6E0R,6EBW,6EDL,6MX8

> <UniProt (SwissProt) Recommended Name of Target Chain>
ALK tyrosine kinase receptor

> <UniProt (SwissProt) Entry Name of Target Chain>
ALK_HUMAN

> <UniProt (SwissProt) Primary ID of Target Chain>
Q9UM73

> <UniProt (SwissProt) Secondary ID(s) of Target Chain>
Q4ZFX9,Q53QQ6,Q53RZ4,Q59FI3,Q9Y4K6

> <UniProt (SwissProt) Alternative ID(s) of Target Chain>


> <UniProt (TrEMBL) Submitted Name of Target Chain>


> <UniProt (TrEMBL) Entry Name of Target Chain>


> <UniProt (TrEMBL) Primary ID of Target Chain>


> <UniProt (TrEMBL) Secondary ID(s) of Target Chain>


> <UniProt (TrEMBL) Alternative ID(s) of Target Chain>


$$$$
BindingDB_50044325_mol_1

Vconf v2.0 Academic SN VC001-00000579
121120  0  0  0  0  0  0  0  0999 V2000
   -0.9640   -3.7430   -0.7600 C   0  0  0  0  0  0  0  0  0  0  0
   -2.2950   -3.9630   -1.3520 C   0  0  1  0  0  0  0  0  0  0  0
   -0.7960   -2.7240    0.1130 N   0  0  0  0  0  0  0  0  0  0  0
    0.6700   -3.4890    1.8140 C   0  0  0  0  0  0  0  0  0  0  0
    6.6910   -3.9310    8.1390 C   0  0  0  0  0  0  0  0  0  0  0
    4.2490   -4.8150    6.5070 C   0  0  0  0  0  0  0  0  0  0  0
    0.4270   -2.4510    0.7940 C   0  0  2  0  0  0  0  0  0  0  0
    4.7620   -3.5930    6.7690 N   0  0  0  0  0  0  0  0  0  0  0
    7.7010   -4.8260    8.0630 N   0  0  0  0  0  0  0  0  0  0  0
   -2.2640   -5.0270   -2.3050 N   0  0  0  0  0  0  0  0  0  0  0
   11.9050  -10.3640   10.2540 C   0  0  0  0  0  0  0  0  0  0  0
    9.0950   -4.4430    9.9720 C   0  0  0  0  0  0  0  0  0  0  0
    1.7810   -4.2520    1.7380 N   0  0  0  0  0  0  0  0  0  0  0
    6.1550   -3.3290    6.9020 C   0  0  1  0  0  0  0  0  0  0  0
   -2.6600   -4.9090   -3.5890 C   0  0  0  0  0  0  0  0  0  0  0
    8.3140   -5.4300    9.1980 C   0  0  2  0  0  0  0  0  0  0  0
    8.0870    0.0350    6.7990 C   0  0  0  0  0  0  0  0  0  0  0
   12.3270  -10.9770   11.3640 N   0  0  0  0  0  0  0  0  0  0  0
    2.3840   -5.5570    5.1400 N   0  0  0  0  0  0  0  0  0  0  0
   -0.0030   -4.4990   -1.0300 O   0  0  0  0  0  0  0  0  0  0  0
   -0.1460   -3.6400    2.7520 O   0  0  0  0  0  0  0  0  0  0  0
    6.2180   -3.5980    9.2490 O   0  0  0  0  0  0  0  0  0  0  0
    5.0000   -5.8010    6.3270 O   0  0  0  0  0  0  0  0  0  0  0
    2.7870   -4.9870    6.4380 C   0  0  1  0  0  0  0  0  0  0  0
   10.0510   -3.8320    9.4450 O   0  0  0  0  0  0  0  0  0  0  0
   -3.3400   -4.2820   -0.2580 C   0  0  1  0  0  0  0  0  0  0  0
   -3.1000   -3.8270   -4.0370 O   0  0  0  0  0  0  0  0  0  0  0
    9.2590    0.4640    6.7500 O   0  0  0  0  0  0  0  0  0  0  0
    6.3580   -1.8000    6.9000 C   0  0  0  0  0  0  0  0  0  0  0
   11.1310   -9.3150   10.3700 N   0  0  0  0  0  0  0  0  0  0  0
   12.2860  -10.8350    9.0580 N   0  0  0  0  0  0  0  0  0  0  0
    8.7980   -4.1870   11.2520 N   0  0  0  0  0  0  0  0  0  0  0
    0.3680   -1.0400    1.4340 C   0  0  1  0  0  0  0  0  0  0  0
    7.8530   -1.4140    6.8660 C   0  0  0  0  0  0  0  0  0  0  0
    7.0840    0.9250    6.7880 N   0  0  0  0  0  0  0  0  0  0  0
    2.5340   -4.5970    4.0330 C   0  0  0  0  0  0  0  0  0  0  0
    2.1240   -5.2480    2.6930 C   0  0  2  0  0  0  0  0  0  0  0
   -4.6160   -4.4320   -0.8660 O   0  0  0  0  0  0  0  0  0  0  0
   -2.5820   -6.0760   -4.4660 C   0  0  0  0  0  0  0  0  0  0  0
    9.2120   -6.5800    8.6980 C   0  0  0  0  0  0  0  0  0  0  0
   10.6230   -8.5810    9.3120 C   0  0  0  0  0  0  0  0  0  0  0
    2.2920   -5.9360    7.5470 C   0  0  0  0  0  0  0  0  0  0  0
    1.7000   -0.6920    2.1420 C   0  0  0  0  0  0  0  0  0  0  0
   -3.0250   -5.5660    0.5280 C   0  0  0  0  0  0  0  0  0  0  0
    0.0590    0.0140    0.3510 C   0  0  0  0  0  0  0  0  0  0  0
    3.2710   -6.0770    2.0780 C   0  0  0  0  0  0  0  0  0  0  0
    9.7770   -7.4230    9.8560 C   0  0  0  0  0  0  0  0  0  0  0
    2.5400   -5.3590    8.9530 C   0  0  0  0  0  0  0  0  0  0  0
    4.6980   -8.1570    2.2410 C   0  0  0  0  0  0  0  0  0  0  0
    1.9680   -6.2960   10.0260 C   0  0  0  0  0  0  0  0  0  0  0
    3.7680   -7.2010    3.0020 C   0  0  0  0  0  0  0  0  0  0  0
    1.6520    0.6630    2.8620 C   0  0  0  0  0  0  0  0  0  0  0
    5.2150   -9.2540    3.1800 C   0  0  0  0  0  0  0  0  0  0  0
    2.2370   -5.7320   11.4270 C   0  0  0  0  0  0  0  0  0  0  0
   -2.5940   -3.0290   -1.8320 H   0  0  0  0  0  0  0  0  0  0  0
   -1.5510   -2.1420    0.2860 H   0  0  0  0  0  0  0  0  0  0  0
    1.2450   -2.4540    0.0690 H   0  0  0  0  0  0  0  0  0  0  0
    4.1440   -2.8540    6.8740 H   0  0  0  0  0  0  0  0  0  0  0
    8.0190   -5.0780    7.1830 H   0  0  0  0  0  0  0  0  0  0  0
   -1.9400   -5.8890   -2.0040 H   0  0  0  0  0  0  0  0  0  0  0
    2.3640   -4.1280    0.9730 H   0  0  0  0  0  0  0  0  0  0  0
    6.6780   -3.7390    6.0360 H   0  0  0  0  0  0  0  0  0  0  0
    7.5360   -5.8600    9.8330 H   0  0  0  0  0  0  0  0  0  0  0
   12.9010  -11.7550   11.3060 H   0  0  0  0  0  0  0  0  0  0  0
   12.0540  -10.6380   12.2310 H   0  0  0  0  0  0  0  0  0  0  0
    3.0090   -6.3430    4.9620 H   0  0  0  0  0  0  0  0  0  0  0
    2.2940   -4.0230    6.5730 H   0  0  0  0  0  0  0  0  0  0  0
   -3.3950   -3.4470    0.4430 H   0  0  0  0  0  0  0  0  0  0  0
    5.8720   -1.3920    6.0110 H   0  0  0  0  0  0  0  0  0  0  0
    5.8870   -1.3660    7.7850 H   0  0  0  0  0  0  0  0  0  0  0
   11.9850  -10.3940    8.2490 H   0  0  0  0  0  0  0  0  0  0  0
   12.8600  -11.6140    9.0000 H   0  0  0  0  0  0  0  0  0  0  0
    9.3210   -3.5380   11.7470 H   0  0  0  0  0  0  0  0  0  0  0
    8.0560   -4.6420   11.6780 H   0  0  0  0  0  0  0  0  0  0  0
   -0.4370   -1.0180    2.1720 H   0  0  0  0  0  0  0  0  0  0  0
    8.3440   -1.7930    7.7620 H   0  0  0  0  0  0  0  0  0  0  0
    8.3150   -1.8760    5.9930 H   0  0  0  0  0  0  0  0  0  0  0
    6.1650    0.6220    6.8270 H   0  0  0  0  0  0  0  0  0  0  0
    7.2850    1.8720    6.7440 H   0  0  0  0  0  0  0  0  0  0  0
    3.5660   -4.2490    3.9590 H   0  0  0  0  0  0  0  0  0  0  0
    1.8920   -3.7410    4.2400 H   0  0  0  0  0  0  0  0  0  0  0
    1.2650   -5.9030    2.8530 H   0  0  0  0  0  0  0  0  0  0  0
   -4.8890   -3.6740   -1.4250 H   0  0  0  0  0  0  0  0  0  0  0
   -2.9400   -5.8180   -5.4640 H   0  0  0  0  0  0  0  0  0  0  0
   -1.5470   -6.4120   -4.5320 H   0  0  0  0  0  0  0  0  0  0  0
   -3.1990   -6.8770   -4.0600 H   0  0  0  0  0  0  0  0  0  0  0
    8.6160   -7.2340    8.0590 H   0  0  0  0  0  0  0  0  0  0  0
   10.0380   -6.1760    8.1090 H   0  0  0  0  0  0  0  0  0  0  0
    9.9980   -9.2190    8.6840 H   0  0  0  0  0  0  0  0  0  0  0
   11.4420   -8.1750    8.7150 H   0  0  0  0  0  0  0  0  0  0  0
    1.2190   -6.0880    7.4190 H   0  0  0  0  0  0  0  0  0  0  0
    2.7920   -6.9020    7.4580 H   0  0  0  0  0  0  0  0  0  0  0
    1.9220   -1.4510    2.8930 H   0  0  0  0  0  0  0  0  0  0  0
    2.5090   -0.6790    1.4110 H   0  0  0  0  0  0  0  0  0  0  0
   -3.8210   -5.7510    1.2500 H   0  0  0  0  0  0  0  0  0  0  0
   -2.9590   -6.4140   -0.1540 H   0  0  0  0  0  0  0  0  0  0  0
   -2.0810   -5.4580    1.0630 H   0  0  0  0  0  0  0  0  0  0  0
   -0.0660    0.9950    0.8080 H   0  0  0  0  0  0  0  0  0  0  0
    0.8760    0.0540   -0.3700 H   0  0  0  0  0  0  0  0  0  0  0
   -0.8640   -0.2380   -0.1690 H   0  0  0  0  0  0  0  0  0  0  0
    2.9090   -6.5230    1.1510 H   0  0  0  0  0  0  0  0  0  0  0
    4.1100   -5.4190    1.8440 H   0  0  0  0  0  0  0  0  0  0  0
   10.4020   -6.7970   10.4950 H   0  0  0  0  0  0  0  0  0  0  0
    8.9520   -7.8250   10.4460 H   0  0  0  0  0  0  0  0  0  0  0
    3.6120   -5.2430    9.1200 H   0  0  0  0  0  0  0  0  0  0  0
    2.0590   -4.3830    9.0330 H   0  0  0  0  0  0  0  0  0  0  0
    4.1530   -8.6180    1.4170 H   0  0  0  0  0  0  0  0  0  0  0
    5.5460   -7.5990    1.8420 H   0  0  0  0  0  0  0  0  0  0  0
    0.8920   -6.4000    9.8830 H   0  0  0  0  0  0  0  0  0  0  0
    2.4370   -7.2770    9.9400 H   0  0  0  0  0  0  0  0  0  0  0
    4.3240   -6.7640    3.8320 H   0  0  0  0  0  0  0  0  0  0  0
    2.9140   -7.7600    3.3880 H   0  0  0  0  0  0  0  0  0  0  0
    2.5520    0.7800    3.4660 H   0  0  0  0  0  0  0  0  0  0  0
    1.6090    1.4750    2.1360 H   0  0  0  0  0  0  0  0  0  0  0
    0.7780    0.7060    3.5110 H   0  0  0  0  0  0  0  0  0  0  0
    5.8730   -9.9250    2.6260 H   0  0  0  0  0  0  0  0  0  0  0
    5.7710   -8.8040    4.0030 H   0  0  0  0  0  0  0  0  0  0  0
    4.3760   -9.8240    3.5790 H   0  0  0  0  0  0  0  0  0  0  0
    1.8230   -6.4090   12.1750 H   0  0  0  0  0  0  0  0  0  0  0
    3.3120   -5.6360   11.5860 H   0  0  0  0  0  0  0  0  0  0  0
    1.7670   -4.7540   11.5280 H   0  0  0  0  0  0  0  0  0  0  0
  1  2  1  0  0  0  0
  1  3  1  0  0  0  0
  1 20  2  0  0  0  0
  2 10  1  0  0  0  0
  2 26  1  0  0  0  0
  2 55  1  0  0  0  0
  3  7  1  0  0  0  0
  3 56  1  0  0  0  0
  4  7  1  0  0  0  0
  4 13  1  0  0  0  0
  4 21  2  0  0  0  0
  5  9  1  0  0  0  0
  5 14  1  0  0  0  0
  5 22  2  0  0  0  0
  6  8  1  0  0  0  0
  6 23  2  0  0  0  0
  6 24  1  0  0  0  0
  7 33  1  0  0  0  0
  7 57  1  0  0  0  0
  8 14  1  0  0  0  0
  8 58  1  0  0  0  0
  9 16  1  0  0  0  0
  9 59  1  0  0  0  0
 10 15  1  0  0  0  0
 10 60  1  0  0  0  0
 11 18  1  0  0  0  0
 11 30  2  0  0  0  0
 11 31  1  0  0  0  0
 12 16  1  0  0  0  0
 12 25  2  0  0  0  0
 12 32  1  0  0  0  0
 13 37  1  0  0  0  0
 13 61  1  0  0  0  0
 14 29  1  0  0  0  0
 14 62  1  0  0  0  0
 15 27  2  0  0  0  0
 15 39  1  0  0  0  0
 16 40  1  0  0  0  0
 16 63  1  0  0  0  0
 17 28  2  0  0  0  0
 17 34  1  0  0  0  0
 17 35  1  0  0  0  0
 18 64  1  0  0  0  0
 18 65  1  0  0  0  0
 19 24  1  0  0  0  0
 19 36  1  0  0  0  0
 19 66  1  0  0  0  0
 24 42  1  0  0  0  0
 24 67  1  0  0  0  0
 26 38  1  0  0  0  0
 26 44  1  0  0  0  0
 26 68  1  0  0  0  0
 29 34  1  0  0  0  0
 29 69  1  0  0  0  0
 29 70  1  0  0  0  0
 30 41  1  0  0  0  0
 31 71  1  0  0  0  0
 31 72  1  0  0  0  0
 32 73  1  0  0  0  0
 32 74  1  0  0  0  0
 33 43  1  0  0  0  0
 33 45  1  0  0  0  0
 33 75  1  0  0  0  0
 34 76  1  0  0  0  0
 34 77  1  0  0  0  0
 35 78  1  0  0  0  0
 35 79  1  0  0  0  0
 36 37  1  0  0  0  0
 36 80  1  0  0  0  0
 36 81  1  0  0  0  0
 37 46  1  0  0  0  0
 37 82  1  0  0  0  0
 38 83  1  0  0  0  0
 39 84  1  0  0  0  0
 39 85  1  0  0  0  0
 39 86  1  0  0  0  0
 40 47  1  0  0  0  0
 40 87  1  0  0  0  0
 40 88  1  0  0  0  0
 41 47  1  0  0  0  0
 41 89  1  0  0  0  0
 41 90  1  0  0  0  0
 42 48  1  0  0  0  0
 42 91  1  0  0  0  0
 42 92  1  0  0  0  0
 43 52  1  0  0  0  0
 43 93  1  0  0  0  0
 43 94  1  0  0  0  0
 44 95  1  0  0  0  0
 44 96  1  0  0  0  0
 44 97  1  0  0  0  0
 45 98  1  0  0  0  0
 45 99  1  0  0  0  0
 45100  1  0  0  0  0
 46 51  1  0  0  0  0
 46101  1  0  0  0  0
 46102  1  0  0  0  0
 47103  1  0  0  0  0
 47104  1  0  0  0  0
 48 50  1  0  0  0  0
 48105  1  0  0  0  0
 48106  1  0  0  0  0
 49 51  1  0  0  0  0
 49 53  1  0  0  0  0
 49107  1  0  0  0  0
 49108  1  0  0  0  0
 50 54  1  0  0  0  0
 50109  1  0  0  0  0
 50110  1  0  0  0  0
 51111  1  0  0  0  0
 51112  1  0  0  0  0
 52113  1  0  0  0  0
 52114  1  0  0  0  0
 52115  1  0  0  0  0
 53116  1  0  0  0  0
 53117  1  0  0  0  0
 53118  1  0  0  0  0
 54119  1  0  0  0  0
 54120  1  0  0  0  0
 54121  1  0  0  0  0
M  END
> <From>
www.bindingDB.org

> <BindingDB Reactant_set_id>
50266086

> <Ligand InChI>
InChI=1S/C22H25ClN6O3S/c1-13(2)33(31,32)19-10-5-4-9-18(19)28-20-17(23)12-25-22(29-20)27-16-8-6-7-15(11-16)26-21(30)14(3)24/h4-14H,24H2,1-3H3,(H,26,30)(H2,25,27,28,29)/t14-/m0/s1

> <Ligand InChI Key>
AHNSCZJRLJXRAM-AWEZNQCLSA-N

> <BindingDB MonomerID>
50044325

> <BindingDB Ligand Name>
CHEMBL3357444

> <Target Name Assigned by Curator or DataSource>
ALK tyrosine kinase receptor

> <Target Source Organism According to Curator or DataSource>
Homo sapiens

> <Ki (nM)>


> <IC50 (nM)>
 1.8

> <Kd (nM)>


> <EC50 (nM)>


> <kon (M-1-s-1)>


> <koff (s-1)>


> <pH>


> <Temp C>


> <Curation/DataSource>
ChEMBL

> <Article DOI>
10.1021/jm5005144

> <PMID>
24785465

> <PubChem AID>


> <Patent Number>


> <Authors>
Song, Z; Yang, Y; Liu, Z; Peng, X; Guo, J; Yang, X; Wu, K; Ai, J; Ding, J; Geng, M; Zhang, A

> <Institution>
Chinese Academy of Sciences

> <Link to Ligand in BindingDB>
http://www.bindingdb.org/bind/chemsearch/marvin/MolStructure.jsp?monomerid=50044325

> <Link to Ligand-Target Pair in BindingDB>
http://www.bindingdb.org/jsp/dbsearch/PrimarySearch_ki.jsp?energyterm=kJ/mole&tag=pol&polymerid=5809&target=ALK+tyrosine+kinase+receptor&column=ki&startPg=0&Increment=50&submit=Search

> <Link to Ligand-Target Pair in BindingDB>
http://www.bindingdb.org/jsp/dbsearch/PrimarySearch_ki.jsp?energyterm=kJ/mole&tag=r21&monomerid=50044325&enzyme=ALK+tyrosine+kinase+receptor&column=ki&startPg=0&Increment=50&submit=Search

> <Ligand HET ID in PDB>


> <PDB ID(s) for Ligand-Target Complex>


> <PubChem CID>
118722213

> <PubChem SID>
103975580

> <ChEBI ID of Ligand>


> <ChEMBL ID of Ligand>
CHEMBL3357444

> <DrugBank ID of Ligand>


> <IUPHAR_GRAC ID of Ligand>


> <KEGG ID of Ligand>
C03803

> <ZINC ID of Ligand>
ZINC96209970

> <Number of Protein Chains in Target (>1 implies a multichain complex)>
1

> <BindingDB Target Chain Sequence>
MGAIGLLWLLPLLLSTAAVGSGMGTGQRAGSPAAGPPLQPREPLSYSRLQRKSLAVDFVVPSLFRVYARDLLLPPSSSELKAGRPEARGSLALDCAPLLRLLGPAPGVSWTAGSPAPAEARTLSRVLKGGSVRKLRRAKQLVLELGEEAILEGCVGPPGEAAVGLLQFNLSELFSWWIRQGEGRLRIRLMPEKKASEVGREGRLSAAIRASQPRLLFQIFGTGHSSLESPTNMPSPSPDYFTWNLTWIMKDSFPFLSHRSRYGLECSFDFPCELEYSPPLHDLRNQSWSWRRIPSEEASQMDLLDGPGAERSKEMPRGSFLLLNTSADSKHTILSPWMRSSSEHCTLAVSVHRHLQPSGRYIAQLLPHNEAAREILLMPTPGKHGWTVLQGRIGRPDNPFRVALEYISSGNRSLSAVDFFALKNCSEGTSPGSKMALQSSFTCWNGTVLQLGQACDFHQDCAQGEDESQMCRKLPVGFYCNFEDGFCGWTQGTLSPHTPQWQVRTLKDARFQDHQDHALLLSTTDVPASESATVTSATFPAPIKSSPCELRMSWLIRGVLRGNVSLVLVENKTGKEQGRMVWHVAAYEGLSLWQWMVLPLLDVSDRFWLQMVAWWGQGSRAIVAFDNISISLDCYLTISGEDKILQNTAPKSRNLFERNPNKELKPGENSPRQTPIFDPTVHWLFTTCGASGPHGPTQAQCNNAYQNSNLSVEVGSEGPLKGIQIWKVPATDTYSISGYGAAGGKGGKNTMMRSHGVSVLGIFNLEKDDMLYILVGQQGEDACPSTNQLIQKVCIGENNVIEEEIRVNRSVHEWAGGGGGGGGATYVFKMKDGVPVPLIIAAGGGGRAYGAKTDTFHPERLENNSSVLGLNGNSGAAGGGGGWNDNTSLLWAGKSLQEGATGGHSCPQAMKKWGWETRGGFGGGGGGCSSGGGGGGYIGGNAASNNDPEMDGEDGVSFISPLGILYTPALKVMEGHGEVNIKHYLNCSHCEVDECHMDPESHKVICFCDHGTVLAEDGVSCIVSPTPEPHLPLSLILSVVTSALVAALVLAFSGIMIVYRRKHQELQAMQMELQSPEYKLSKLRTSTIMTDYNPNYCFAGKTSSISDLKEVPRKNITLIRGLGHGAFGEVYEGQVSGMPNDPSPLQVAVKTLPEVCSEQDELDFLMEALIISKFNHQNIVRCIGVSLQSLPRFILLELMAGGDLKSFLRETRPRPSQPSSLAMLDLLHVARDIACGCQYLEENHFIHRDIAARNCLLTCPGPGRVAKIGDFGMARDIYRASYYRKGGCAMLPVKWMPPEAFMEGIFTSKTDTWSFGVLLWEIFSLGYMPYPSKSNQEVLEFVTSGGRMDPPKNCPGPVYRIMTQCWQHQPEDRPNFAIILERIEYCTQDPDVINTALPIEYGPLVEEEEKVPVRPKDPEGVPPLLVSQQAKREEERSPAAPPPLPTTSSGKAAKKPTAAEISVRVPRGPAVEGGHVNMAFSQSNPPSELHKVHGSRNKPTSLWNPTYGSWFTEKPTKKNNPIAKKEPHDRGNLGLEGSCTVPPNVATGRLPGASLLLEPSSLTANMKEVPLFRLRHFPCGNVNYGYQQQGLPLEAATAPGAGHYEDTILKSKNSMNQPGP

> <PDB ID(s) of Target Chain>
2XB7,2XBA,3AOX,5FTO,5FTQ,6E0R,6EBW,6EDL,6MX8

> <UniProt (SwissProt) Recommended Name of Target Chain>
ALK tyrosine kinase receptor

> <UniProt (SwissProt) Entry Name of Target Chain>
ALK_HUMAN

> <UniProt (SwissProt) Primary ID of Target Chain>
Q9UM73

> <UniProt (SwissProt) Secondary ID(s) of Target Chain>
Q4ZFX9,Q53QQ6,Q53RZ4,Q59FI3,Q9Y4K6

> <UniProt (SwissProt) Alternative ID(s) of Target Chain>


> <UniProt (TrEMBL) Submitted Name of Target Chain>


> <UniProt (TrEMBL) Entry Name of Target Chain>


> <UniProt (TrEMBL) Primary ID of Target Chain>


> <UniProt (TrEMBL) Secondary ID(s) of Target Chain>


> <UniProt (TrEMBL) Alternative ID(s) of Target Chain>


$$$$
BindingDB_50044326_mol_1

Vconf v2.0 Academic SN VC001-00000579
102101  0  0  0  0  0  0  0  0999 V2000
   -0.2410   -4.1610    0.5000 C   0  0  0  0  0  0  0  0  0  0  0
    3.3130   -5.0180    0.4770 C   0  0  0  0  0  0  0  0  0  0  0
    0.9720   -4.7060    0.2610 N   0  0  0  0  0  0  0  0  0  0  0
   12.8850   -5.3770    2.3020 C   0  0  0  0  0  0  0  0  0  0  0
    4.5310   -4.6510    0.9260 N   0  0  0  0  0  0  0  0  0  0  0
    2.2100   -4.0360    0.4950 C   0  0  2  0  0  0  0  0  0  0  0
   14.1070   -4.8720    2.5800 N   0  0  0  0  0  0  0  0  0  0  0
    9.4070   -4.5730    1.4740 C   0  0  0  0  0  0  0  0  0  0  0
   -1.4480   -4.9310    0.1450 C   0  0  1  0  0  0  0  0  0  0  0
    8.2180   -5.4120    1.2690 C   0  0  0  0  0  0  0  0  0  0  0
   17.7550   -5.5710    3.2640 C   0  0  0  0  0  0  0  0  0  0  0
   -2.6270   -4.2410    0.5620 N   0  0  0  0  0  0  0  0  0  0  0
   10.6060   -5.1720    1.6310 N   0  0  0  0  0  0  0  0  0  0  0
    5.6680   -5.5060    0.9440 C   0  0  1  0  0  0  0  0  0  0  0
   15.2050   -5.6520    3.0420 C   0  0  1  0  0  0  0  0  0  0  0
   18.9650   -4.8150    3.0880 C   0  0  0  0  0  0  0  0  0  0  0
   -3.5560   -4.7560    1.3950 C   0  0  0  0  0  0  0  0  0  0  0
   11.8290   -4.4650    1.8230 C   0  0  2  0  0  0  0  0  0  0  0
    6.8990   -4.6120    1.2170 C   0  0  2  0  0  0  0  0  0  0  0
   16.4770   -4.7860    2.9060 C   0  0  2  0  0  0  0  0  0  0  0
   -0.3290   -3.0130    0.9920 O   0  0  0  0  0  0  0  0  0  0  0
    3.1240   -6.1860    0.0650 O   0  0  0  0  0  0  0  0  0  0  0
   12.6570   -6.5980    2.4570 O   0  0  0  0  0  0  0  0  0  0  0
    9.3140   -3.3250    1.5190 O   0  0  0  0  0  0  0  0  0  0  0
   14.9750   -6.1010    4.5070 C   0  0  0  0  0  0  0  0  0  0  0
    5.4980   -6.6130    2.0140 C   0  0  0  0  0  0  0  0  0  0  0
   18.9580   -3.6540    2.7100 O   0  0  0  0  0  0  0  0  0  0  0
   -3.4430   -5.9120    1.8590 O   0  0  0  0  0  0  0  0  0  0  0
    2.4020   -2.8920   -0.5380 C   0  0  0  0  0  0  0  0  0  0  0
   -1.5040   -5.1920   -1.3810 C   0  0  0  0  0  0  0  0  0  0  0
   20.1260   -5.3860    3.3400 O   0  0  0  0  0  0  0  0  0  0  0
   16.5780   -4.3240    1.5620 O   0  0  0  0  0  0  0  0  0  0  0
    6.9770   -3.6370    0.1810 O   0  0  0  0  0  0  0  0  0  0  0
    6.0570   -7.9760    1.5530 C   0  0  0  0  0  0  0  0  0  0  0
   15.4400   -7.5490    4.7680 C   0  0  0  0  0  0  0  0  0  0  0
   -4.7210   -3.9460    1.7460 C   0  0  0  0  0  0  0  0  0  0  0
   12.2630   -3.7850    0.5080 C   0  0  0  0  0  0  0  0  0  0  0
   -2.6660   -6.1420   -1.7180 C   0  0  0  0  0  0  0  0  0  0  0
    3.6400   -2.0240   -0.2470 C   0  0  0  0  0  0  0  0  0  0  0
    2.4640   -3.4160   -1.9860 C   0  0  0  0  0  0  0  0  0  0  0
   -1.6570   -3.8940   -2.1970 C   0  0  0  0  0  0  0  0  0  0  0
   15.5310   -7.7940    6.2820 C   0  0  0  0  0  0  0  0  0  0  0
   14.4660   -8.5650    4.1470 C   0  0  0  0  0  0  0  0  0  0  0
    6.1860   -8.9160    2.7620 C   0  0  0  0  0  0  0  0  0  0  0
    5.1420   -8.6280    0.5010 C   0  0  0  0  0  0  0  0  0  0  0
    1.0070   -5.6120   -0.0850 H   0  0  0  0  0  0  0  0  0  0  0
    4.6520   -3.7310    1.2090 H   0  0  0  0  0  0  0  0  0  0  0
    2.1780   -3.6040    1.4970 H   0  0  0  0  0  0  0  0  0  0  0
   14.2600   -3.9300    2.4110 H   0  0  0  0  0  0  0  0  0  0  0
   -1.3720   -5.8970    0.6480 H   0  0  0  0  0  0  0  0  0  0  0
    8.1650   -6.1210    2.0950 H   0  0  0  0  0  0  0  0  0  0  0
    8.3370   -5.9630    0.3360 H   0  0  0  0  0  0  0  0  0  0  0
   17.7050   -5.8750    4.3100 H   0  0  0  0  0  0  0  0  0  0  0
   17.8080   -6.4630    2.6390 H   0  0  0  0  0  0  0  0  0  0  0
   -2.7630   -3.3420    0.2280 H   0  0  0  0  0  0  0  0  0  0  0
   10.6380   -6.1420    1.6430 H   0  0  0  0  0  0  0  0  0  0  0
    5.7880   -5.9510   -0.0450 H   0  0  0  0  0  0  0  0  0  0  0
   15.3160   -6.5210    2.3910 H   0  0  0  0  0  0  0  0  0  0  0
   11.6840   -3.6980    2.5880 H   0  0  0  0  0  0  0  0  0  0  0
    6.7600   -4.0980    2.1700 H   0  0  0  0  0  0  0  0  0  0  0
   16.3940   -3.9200    3.5650 H   0  0  0  0  0  0  0  0  0  0  0
   15.5130   -5.4250    5.1730 H   0  0  0  0  0  0  0  0  0  0  0
   13.9150   -6.0360    4.7600 H   0  0  0  0  0  0  0  0  0  0  0
    6.0060   -6.3030    2.9280 H   0  0  0  0  0  0  0  0  0  0  0
    4.4430   -6.7480    2.2550 H   0  0  0  0  0  0  0  0  0  0  0
    1.5380   -2.2310   -0.4690 H   0  0  0  0  0  0  0  0  0  0  0
   -0.5790   -5.6830   -1.6910 H   0  0  0  0  0  0  0  0  0  0  0
   20.8940   -4.7980    3.1880 H   0  0  0  0  0  0  0  0  0  0  0
   17.3480   -3.7380    1.4000 H   0  0  0  0  0  0  0  0  0  0  0
    7.7170   -3.0010    0.2870 H   0  0  0  0  0  0  0  0  0  0  0
    7.0460   -7.8410    1.1170 H   0  0  0  0  0  0  0  0  0  0  0
   16.4280   -7.7050    4.3350 H   0  0  0  0  0  0  0  0  0  0  0
   -5.3760   -4.5050    2.4150 H   0  0  0  0  0  0  0  0  0  0  0
   -4.3920   -3.0330    2.2430 H   0  0  0  0  0  0  0  0  0  0  0
   -5.2690   -3.6880    0.8390 H   0  0  0  0  0  0  0  0  0  0  0
   13.1950   -3.2380    0.6570 H   0  0  0  0  0  0  0  0  0  0  0
   12.4080   -4.5350   -0.2710 H   0  0  0  0  0  0  0  0  0  0  0
   11.4960   -3.0810    0.1840 H   0  0  0  0  0  0  0  0  0  0  0
   -2.6470   -6.3840   -2.7810 H   0  0  0  0  0  0  0  0  0  0  0
   -2.5660   -7.0630   -1.1420 H   0  0  0  0  0  0  0  0  0  0  0
   -3.6180   -5.6700   -1.4750 H   0  0  0  0  0  0  0  0  0  0  0
    3.5980   -1.1220   -0.8590 H   0  0  0  0  0  0  0  0  0  0  0
    3.6520   -1.7370    0.8050 H   0  0  0  0  0  0  0  0  0  0  0
    4.5540   -2.5660   -0.4880 H   0  0  0  0  0  0  0  0  0  0  0
    2.5110   -2.5730   -2.6760 H   0  0  0  0  0  0  0  0  0  0  0
    3.3470   -4.0400   -2.1240 H   0  0  0  0  0  0  0  0  0  0  0
    1.5720   -4.0020   -2.2060 H   0  0  0  0  0  0  0  0  0  0  0
   -1.6800   -4.1320   -3.2610 H   0  0  0  0  0  0  0  0  0  0  0
   -2.5840   -3.3880   -1.9250 H   0  0  0  0  0  0  0  0  0  0  0
   -0.8150   -3.2270   -2.0050 H   0  0  0  0  0  0  0  0  0  0  0
   15.8560   -8.8180    6.4700 H   0  0  0  0  0  0  0  0  0  0  0
   16.2550   -7.1070    6.7230 H   0  0  0  0  0  0  0  0  0  0  0
   14.5560   -7.6350    6.7440 H   0  0  0  0  0  0  0  0  0  0  0
   14.7880   -9.5770    4.3900 H   0  0  0  0  0  0  0  0  0  0  0
   13.4610   -8.4040    4.5390 H   0  0  0  0  0  0  0  0  0  0  0
   14.4490   -8.4530    3.0630 H   0  0  0  0  0  0  0  0  0  0  0
    6.5860   -9.8770    2.4380 H   0  0  0  0  0  0  0  0  0  0  0
    6.8620   -8.4790    3.4960 H   0  0  0  0  0  0  0  0  0  0  0
    5.2080   -9.0690    3.2190 H   0  0  0  0  0  0  0  0  0  0  0
    5.5470   -9.6000    0.2180 H   0  0  0  0  0  0  0  0  0  0  0
    4.1400   -8.7620    0.9110 H   0  0  0  0  0  0  0  0  0  0  0
    5.0830   -8.0010   -0.3880 H   0  0  0  0  0  0  0  0  0  0  0
  1  3  1  0  0  0  0
  1  9  1  0  0  0  0
  1 21  2  0  0  0  0
  2  5  1  0  0  0  0
  2  6  1  0  0  0  0
  2 22  2  0  0  0  0
  3  6  1  0  0  0  0
  3 46  1  0  0  0  0
  4  7  1  0  0  0  0
  4 18  1  0  0  0  0
  4 23  2  0  0  0  0
  5 14  1  0  0  0  0
  5 47  1  0  0  0  0
  6 29  1  0  0  0  0
  6 48  1  0  0  0  0
  7 15  1  0  0  0  0
  7 49  1  0  0  0  0
  8 10  1  0  0  0  0
  8 13  1  0  0  0  0
  8 24  2  0  0  0  0
  9 12  1  0  0  0  0
  9 30  1  0  0  0  0
  9 50  1  0  0  0  0
 10 19  1  0  0  0  0
 10 51  1  0  0  0  0
 10 52  1  0  0  0  0
 11 16  1  0  0  0  0
 11 20  1  0  0  0  0
 11 53  1  0  0  0  0
 11 54  1  0  0  0  0
 12 17  1  0  0  0  0
 12 55  1  0  0  0  0
 13 18  1  0  0  0  0
 13 56  1  0  0  0  0
 14 19  1  0  0  0  0
 14 26  1  0  0  0  0
 14 57  1  0  0  0  0
 15 20  1  0  0  0  0
 15 25  1  0  0  0  0
 15 58  1  0  0  0  0
 16 27  2  0  0  0  0
 16 31  1  0  0  0  0
 17 28  2  0  0  0  0
 17 36  1  0  0  0  0
 18 37  1  0  0  0  0
 18 59  1  0  0  0  0
 19 33  1  0  0  0  0
 19 60  1  0  0  0  0
 20 32  1  0  0  0  0
 20 61  1  0  0  0  0
 25 35  1  0  0  0  0
 25 62  1  0  0  0  0
 25 63  1  0  0  0  0
 26 34  1  0  0  0  0
 26 64  1  0  0  0  0
 26 65  1  0  0  0  0
 29 39  1  0  0  0  0
 29 40  1  0  0  0  0
 29 66  1  0  0  0  0
 30 38  1  0  0  0  0
 30 41  1  0  0  0  0
 30 67  1  0  0  0  0
 31 68  1  0  0  0  0
 32 69  1  0  0  0  0
 33 70  1  0  0  0  0
 34 44  1  0  0  0  0
 34 45  1  0  0  0  0
 34 71  1  0  0  0  0
 35 42  1  0  0  0  0
 35 43  1  0  0  0  0
 35 72  1  0  0  0  0
 36 73  1  0  0  0  0
 36 74  1  0  0  0  0
 36 75  1  0  0  0  0
 37 76  1  0  0  0  0
 37 77  1  0  0  0  0
 37 78  1  0  0  0  0
 38 79  1  0  0  0  0
 38 80  1  0  0  0  0
 38 81  1  0  0  0  0
 39 82  1  0  0  0  0
 39 83  1  0  0  0  0
 39 84  1  0  0  0  0
 40 85  1  0  0  0  0
 40 86  1  0  0  0  0
 40 87  1  0  0  0  0
 41 88  1  0  0  0  0
 41 89  1  0  0  0  0
 41 90  1  0  0  0  0
 42 91  1  0  0  0  0
 42 92  1  0  0  0  0
 42 93  1  0  0  0  0
 43 94  1  0  0  0  0
 43 95  1  0  0  0  0
 43 96  1  0  0  0  0
 44 97  1  0  0  0  0
 44 98  1  0  0  0  0
 44 99  1  0  0  0  0
 45100  1  0  0  0  0
 45101  1  0  0  0  0
 45102  1  0  0  0  0
M  END
> <From>
www.bindingDB.org

> <BindingDB Reactant_set_id>
50266087

> <Ligand InChI>
InChI=1S/C24H29ClN6O3S/c1-14(2)21(26)23(32)28-16-8-7-9-17(12-16)29-24-27-13-18(25)22(31-24)30-19-10-5-6-11-20(19)35(33,34)15(3)4/h5-15,21H,26H2,1-4H3,(H,28,32)(H2,27,29,30,31)/t21-/m0/s1

> <Ligand InChI Key>
MVMGHPHRNLHXAW-NRFANRHFSA-N

> <BindingDB MonomerID>
50044326

> <BindingDB Ligand Name>
CHEMBL3357445

> <Target Name Assigned by Curator or DataSource>
ALK tyrosine kinase receptor

> <Target Source Organism According to Curator or DataSource>
Homo sapiens

> <Ki (nM)>


> <IC50 (nM)>
 15

> <Kd (nM)>


> <EC50 (nM)>


> <kon (M-1-s-1)>


> <koff (s-1)>


> <pH>


> <Temp C>


> <Curation/DataSource>
ChEMBL

> <Article DOI>
10.1021/jm5005144

> <PMID>
24785465

> <PubChem AID>


> <Patent Number>


> <Authors>
Song, Z; Yang, Y; Liu, Z; Peng, X; Guo, J; Yang, X; Wu, K; Ai, J; Ding, J; Geng, M; Zhang, A

> <Institution>
Chinese Academy of Sciences

> <Link to Ligand in BindingDB>
http://www.bindingdb.org/bind/chemsearch/marvin/MolStructure.jsp?monomerid=50044326

> <Link to Ligand-Target Pair in BindingDB>
http://www.bindingdb.org/jsp/dbsearch/PrimarySearch_ki.jsp?energyterm=kJ/mole&tag=pol&polymerid=5809&target=ALK+tyrosine+kinase+receptor&column=ki&startPg=0&Increment=50&submit=Search

> <Link to Ligand-Target Pair in BindingDB>
http://www.bindingdb.org/jsp/dbsearch/PrimarySearch_ki.jsp?energyterm=kJ/mole&tag=r21&monomerid=50044326&enzyme=ALK+tyrosine+kinase+receptor&column=ki&startPg=0&Increment=50&submit=Search

> <Ligand HET ID in PDB>


> <PDB ID(s) for Ligand-Target Complex>


> <PubChem CID>
118722214

> <PubChem SID>
103975581

> <ChEBI ID of Ligand>


> <ChEMBL ID of Ligand>
CHEMBL3357445

> <DrugBank ID of Ligand>


> <IUPHAR_GRAC ID of Ligand>


> <KEGG ID of Ligand>


> <ZINC ID of Ligand>
ZINC43242193

> <Number of Protein Chains in Target (>1 implies a multichain complex)>
1

> <BindingDB Target Chain Sequence>
MGAIGLLWLLPLLLSTAAVGSGMGTGQRAGSPAAGPPLQPREPLSYSRLQRKSLAVDFVVPSLFRVYARDLLLPPSSSELKAGRPEARGSLALDCAPLLRLLGPAPGVSWTAGSPAPAEARTLSRVLKGGSVRKLRRAKQLVLELGEEAILEGCVGPPGEAAVGLLQFNLSELFSWWIRQGEGRLRIRLMPEKKASEVGREGRLSAAIRASQPRLLFQIFGTGHSSLESPTNMPSPSPDYFTWNLTWIMKDSFPFLSHRSRYGLECSFDFPCELEYSPPLHDLRNQSWSWRRIPSEEASQMDLLDGPGAERSKEMPRGSFLLLNTSADSKHTILSPWMRSSSEHCTLAVSVHRHLQPSGRYIAQLLPHNEAAREILLMPTPGKHGWTVLQGRIGRPDNPFRVALEYISSGNRSLSAVDFFALKNCSEGTSPGSKMALQSSFTCWNGTVLQLGQACDFHQDCAQGEDESQMCRKLPVGFYCNFEDGFCGWTQGTLSPHTPQWQVRTLKDARFQDHQDHALLLSTTDVPASESATVTSATFPAPIKSSPCELRMSWLIRGVLRGNVSLVLVENKTGKEQGRMVWHVAAYEGLSLWQWMVLPLLDVSDRFWLQMVAWWGQGSRAIVAFDNISISLDCYLTISGEDKILQNTAPKSRNLFERNPNKELKPGENSPRQTPIFDPTVHWLFTTCGASGPHGPTQAQCNNAYQNSNLSVEVGSEGPLKGIQIWKVPATDTYSISGYGAAGGKGGKNTMMRSHGVSVLGIFNLEKDDMLYILVGQQGEDACPSTNQLIQKVCIGENNVIEEEIRVNRSVHEWAGGGGGGGGATYVFKMKDGVPVPLIIAAGGGGRAYGAKTDTFHPERLENNSSVLGLNGNSGAAGGGGGWNDNTSLLWAGKSLQEGATGGHSCPQAMKKWGWETRGGFGGGGGGCSSGGGGGGYIGGNAASNNDPEMDGEDGVSFISPLGILYTPALKVMEGHGEVNIKHYLNCSHCEVDECHMDPESHKVICFCDHGTVLAEDGVSCIVSPTPEPHLPLSLILSVVTSALVAALVLAFSGIMIVYRRKHQELQAMQMELQSPEYKLSKLRTSTIMTDYNPNYCFAGKTSSISDLKEVPRKNITLIRGLGHGAFGEVYEGQVSGMPNDPSPLQVAVKTLPEVCSEQDELDFLMEALIISKFNHQNIVRCIGVSLQSLPRFILLELMAGGDLKSFLRETRPRPSQPSSLAMLDLLHVARDIACGCQYLEENHFIHRDIAARNCLLTCPGPGRVAKIGDFGMARDIYRASYYRKGGCAMLPVKWMPPEAFMEGIFTSKTDTWSFGVLLWEIFSLGYMPYPSKSNQEVLEFVTSGGRMDPPKNCPGPVYRIMTQCWQHQPEDRPNFAIILERIEYCTQDPDVINTALPIEYGPLVEEEEKVPVRPKDPEGVPPLLVSQQAKREEERSPAAPPPLPTTSSGKAAKKPTAAEISVRVPRGPAVEGGHVNMAFSQSNPPSELHKVHGSRNKPTSLWNPTYGSWFTEKPTKKNNPIAKKEPHDRGNLGLEGSCTVPPNVATGRLPGASLLLEPSSLTANMKEVPLFRLRHFPCGNVNYGYQQQGLPLEAATAPGAGHYEDTILKSKNSMNQPGP

> <PDB ID(s) of Target Chain>
2XB7,2XBA,3AOX,5FTO,5FTQ,6E0R,6EBW,6EDL,6MX8

> <UniProt (SwissProt) Recommended Name of Target Chain>
ALK tyrosine kinase receptor

> <UniProt (SwissProt) Entry Name of Target Chain>
ALK_HUMAN

> <UniProt (SwissProt) Primary ID of Target Chain>
Q9UM73

> <UniProt (SwissProt) Secondary ID(s) of Target Chain>
Q4ZFX9,Q53QQ6,Q53RZ4,Q59FI3,Q9Y4K6

> <UniProt (SwissProt) Alternative ID(s) of Target Chain>


> <UniProt (TrEMBL) Submitted Name of Target Chain>


> <UniProt (TrEMBL) Entry Name of Target Chain>


> <UniProt (TrEMBL) Primary ID of Target Chain>


> <UniProt (TrEMBL) Secondary ID(s) of Target Chain>


> <UniProt (TrEMBL) Alternative ID(s) of Target Chain>


$$$$

  SciTegic05221516342D

 34 37  0  0  0  0            999 V2000
   11.5439  -25.5971    0.0000 C   0  0
   11.9566  -26.3070    0.0000 C   0  0
   12.3650  -25.5946    0.0000 C   0  0
   11.2494  -26.7202    0.0000 C   0  0
   11.2503  -27.5374    0.0000 O   0  0
   10.5441  -26.3124    0.0000 N   0  0
    9.8354  -26.7217    0.0000 C   0  0
    9.1259  -26.3139    0.0000 C   0  0
    8.4172  -26.7232    0.0000 C   0  0
    8.4181  -27.5404    0.0000 C   0  0
    9.1276  -27.9483    0.0000 C   0  0
    9.8363  -27.5389    0.0000 C   0  0
    7.7118  -26.3154    0.0000 N   0  0
    7.0032  -26.7247    0.0000 C   0  0
    6.2978  -26.3168    0.0000 N   0  0
    5.5891  -26.7262    0.0000 C   0  0
    5.5900  -27.5434    0.0000 C   0  0
    6.2995  -27.9512    0.0000 C   0  0
    7.0040  -27.5419    0.0000 N   0  0
    4.8796  -26.3183    0.0000 N   0  0
    4.1751  -26.7277    0.0000 C   0  0
    3.4655  -26.3198    0.0000 C   0  0
    2.7569  -26.7292    0.0000 C   0  0
    2.7577  -27.5463    0.0000 C   0  0
    3.4673  -27.9542    0.0000 C   0  0
    4.1759  -27.5449    0.0000 C   0  0
    3.4647  -25.5026    0.0000 S   0  0
    4.2819  -25.5018    0.0000 O   0  0
    3.4638  -24.6854    0.0000 O   0  0
    2.6475  -25.5035    0.0000 C   0  0
    2.2382  -24.7989    0.0000 C   0  0
    2.2396  -26.2130    0.0000 C   0  0
    4.8813  -27.9527    0.0000 Cl  0  0
   12.6635  -26.7187    0.0000 N   0  0
  2  1  1  0
  3  2  1  0
  1  3  1  0
  4  2  1  0
  4  5  2  0
  4  6  1  0
  7  8  1  0
  8  9  2  0
  9 10  1  0
 10 11  2  0
 11 12  1  0
  7 12  2  0
 14 15  1  0
 15 16  2  0
 16 17  1  0
 17 18  2  0
 18 19  1  0
 14 19  2  0
 21 22  1  0
 22 23  2  0
 23 24  1  0
 24 25  2  0
 25 26  1  0
 21 26  2  0
 27 28  2  0
 27 29  2  0
 30 31  1  0
 30 32  1  0
 27 30  1  0
 22 27  1  0
 20 21  1  0
 16 20  1  0
 17 33  1  0
 13 14  1  0
  9 13  1  0
  6  7  1  0
  2 34  1  0
M  END
> <From>
www.bindingDB.org

> <BindingDB Reactant_set_id>
50266088

> <Ligand InChI>
InChI=1S/C23H25ClN6O3S/c1-14(2)34(32,33)19-9-4-3-8-18(19)29-20-17(24)13-26-22(30-20)28-16-7-5-6-15(12-16)27-21(31)23(25)10-11-23/h3-9,12-14H,10-11,25H2,1-2H3,(H,27,31)(H2,26,28,29,30)

> <Ligand InChI Key>
OMQJQXGWKUBIPW-UHFFFAOYSA-N

> <BindingDB MonomerID>
50044327

> <BindingDB Ligand Name>
CHEMBL3357446

> <Target Name Assigned by Curator or DataSource>
ALK tyrosine kinase receptor

> <Target Source Organism According to Curator or DataSource>
Homo sapiens

> <Ki (nM)>


> <IC50 (nM)>
 51

> <Kd (nM)>


> <EC50 (nM)>


> <kon (M-1-s-1)>


> <koff (s-1)>


> <pH>


> <Temp C>


> <Curation/DataSource>
ChEMBL

> <Article DOI>
10.1021/jm5005144

> <PMID>
24785465

> <PubChem AID>


> <Patent Number>


> <Authors>
Song, Z; Yang, Y; Liu, Z; Peng, X; Guo, J; Yang, X; Wu, K; Ai, J; Ding, J; Geng, M; Zhang, A

> <Institution>
Chinese Academy of Sciences

> <Link to Ligand in BindingDB>
http://www.bindingdb.org/bind/chemsearch/marvin/MolStructure.jsp?monomerid=50044327

> <Link to Ligand-Target Pair in BindingDB>
http://www.bindingdb.org/jsp/dbsearch/PrimarySearch_ki.jsp?energyterm=kJ/mole&tag=pol&polymerid=5809&target=ALK+tyrosine+kinase+receptor&column=ki&startPg=0&Increment=50&submit=Search

> <Link to Ligand-Target Pair in BindingDB>
http://www.bindingdb.org/jsp/dbsearch/PrimarySearch_ki.jsp?energyterm=kJ/mole&tag=r21&monomerid=50044327&enzyme=ALK+tyrosine+kinase+receptor&column=ki&startPg=0&Increment=50&submit=Search

> <Ligand HET ID in PDB>


> <PDB ID(s) for Ligand-Target Complex>


> <PubChem CID>
118722215

> <PubChem SID>
103975582

> <ChEBI ID of Ligand>


> <ChEMBL ID of Ligand>
CHEMBL3357446

> <DrugBank ID of Ligand>


> <IUPHAR_GRAC ID of Ligand>
5268

> <KEGG ID of Ligand>


> <ZINC ID of Ligand>
ZINC18086647

> <Number of Protein Chains in Target (>1 implies a multichain complex)>
1

> <BindingDB Target Chain Sequence>
MGAIGLLWLLPLLLSTAAVGSGMGTGQRAGSPAAGPPLQPREPLSYSRLQRKSLAVDFVVPSLFRVYARDLLLPPSSSELKAGRPEARGSLALDCAPLLRLLGPAPGVSWTAGSPAPAEARTLSRVLKGGSVRKLRRAKQLVLELGEEAILEGCVGPPGEAAVGLLQFNLSELFSWWIRQGEGRLRIRLMPEKKASEVGREGRLSAAIRASQPRLLFQIFGTGHSSLESPTNMPSPSPDYFTWNLTWIMKDSFPFLSHRSRYGLECSFDFPCELEYSPPLHDLRNQSWSWRRIPSEEASQMDLLDGPGAERSKEMPRGSFLLLNTSADSKHTILSPWMRSSSEHCTLAVSVHRHLQPSGRYIAQLLPHNEAAREILLMPTPGKHGWTVLQGRIGRPDNPFRVALEYISSGNRSLSAVDFFALKNCSEGTSPGSKMALQSSFTCWNGTVLQLGQACDFHQDCAQGEDESQMCRKLPVGFYCNFEDGFCGWTQGTLSPHTPQWQVRTLKDARFQDHQDHALLLSTTDVPASESATVTSATFPAPIKSSPCELRMSWLIRGVLRGNVSLVLVENKTGKEQGRMVWHVAAYEGLSLWQWMVLPLLDVSDRFWLQMVAWWGQGSRAIVAFDNISISLDCYLTISGEDKILQNTAPKSRNLFERNPNKELKPGENSPRQTPIFDPTVHWLFTTCGASGPHGPTQAQCNNAYQNSNLSVEVGSEGPLKGIQIWKVPATDTYSISGYGAAGGKGGKNTMMRSHGVSVLGIFNLEKDDMLYILVGQQGEDACPSTNQLIQKVCIGENNVIEEEIRVNRSVHEWAGGGGGGGGATYVFKMKDGVPVPLIIAAGGGGRAYGAKTDTFHPERLENNSSVLGLNGNSGAAGGGGGWNDNTSLLWAGKSLQEGATGGHSCPQAMKKWGWETRGGFGGGGGGCSSGGGGGGYIGGNAASNNDPEMDGEDGVSFISPLGILYTPALKVMEGHGEVNIKHYLNCSHCEVDECHMDPESHKVICFCDHGTVLAEDGVSCIVSPTPEPHLPLSLILSVVTSALVAALVLAFSGIMIVYRRKHQELQAMQMELQSPEYKLSKLRTSTIMTDYNPNYCFAGKTSSISDLKEVPRKNITLIRGLGHGAFGEVYEGQVSGMPNDPSPLQVAVKTLPEVCSEQDELDFLMEALIISKFNHQNIVRCIGVSLQSLPRFILLELMAGGDLKSFLRETRPRPSQPSSLAMLDLLHVARDIACGCQYLEENHFIHRDIAARNCLLTCPGPGRVAKIGDFGMARDIYRASYYRKGGCAMLPVKWMPPEAFMEGIFTSKTDTWSFGVLLWEIFSLGYMPYPSKSNQEVLEFVTSGGRMDPPKNCPGPVYRIMTQCWQHQPEDRPNFAIILERIEYCTQDPDVINTALPIEYGPLVEEEEKVPVRPKDPEGVPPLLVSQQAKREEERSPAAPPPLPTTSSGKAAKKPTAAEISVRVPRGPAVEGGHVNMAFSQSNPPSELHKVHGSRNKPTSLWNPTYGSWFTEKPTKKNNPIAKKEPHDRGNLGLEGSCTVPPNVATGRLPGASLLLEPSSLTANMKEVPLFRLRHFPCGNVNYGYQQQGLPLEAATAPGAGHYEDTILKSKNSMNQPGP

> <PDB ID(s) of Target Chain>
2XB7,2XBA,3AOX,5FTO,5FTQ,6E0R,6EBW,6EDL,6MX8

> <UniProt (SwissProt) Recommended Name of Target Chain>
ALK tyrosine kinase receptor

> <UniProt (SwissProt) Entry Name of Target Chain>
ALK_HUMAN

> <UniProt (SwissProt) Primary ID of Target Chain>
Q9UM73

> <UniProt (SwissProt) Secondary ID(s) of Target Chain>
Q4ZFX9,Q53QQ6,Q53RZ4,Q59FI3,Q9Y4K6

> <UniProt (SwissProt) Alternative ID(s) of Target Chain>


> <UniProt (TrEMBL) Submitted Name of Target Chain>


> <UniProt (TrEMBL) Entry Name of Target Chain>


> <UniProt (TrEMBL) Primary ID of Target Chain>


> <UniProt (TrEMBL) Secondary ID(s) of Target Chain>


> <UniProt (TrEMBL) Alternative ID(s) of Target Chain>


$$$$
BindingDB_50044328_mol_1

Vconf v2.0 Academic SN VC001-00000579
 16 16  0  0  0  0  0  0  0  0999 V2000
    2.8914    1.1832    0.0000 N   0  0  0  0  0  0  0  0  0  0  0
    4.3245    1.1957    0.0000 C   0  0  0  0  0  0  0  0  0  0  0
   -0.6832    1.5956    0.0000 C   0  0  0  0  0  0  0  0  0  0  0
    2.1789    1.5956    0.0000 C   0  0  0  0  0  0  0  0  0  0  0
    1.4665    1.1832    0.0000 C   0  0  0  0  0  0  0  0  0  0  0
    3.6038    1.5998    0.0000 N   0  0  0  0  0  0  0  0  0  0  0
    0.0375    1.1749    0.0000 C   0  0  0  0  0  0  0  0  0  0  0
    0.7499    1.5956    0.0000 C   0  0  0  0  0  0  0  0  0  0  0
    1.4665    0.3500    0.0000 N   0  0  0  0  0  0  0  0  0  0  0
    5.0286    1.6123    0.0000 N   0  0  0  0  0  0  0  0  0  0  0
   -0.6832    2.4205    0.0000 N   0  0  0  0  0  0  0  0  0  0  0
    4.3287    0.3708    0.0000 N   0  0  0  0  0  0  0  0  0  0  0
   -1.3956    1.1832    0.0000 N   0  0  0  0  0  0  0  0  0  0  0
    0.7499   -0.0625    0.0000 C   0  0  0  0  0  0  0  0  0  0  0
    0.0375    0.3500    0.0000 C   0  0  0  0  0  0  0  0  0  0  0
    2.1665    2.4205    0.0000 C   0  0  0  0  0  0  0  0  0  0  0
  2  6  2  0  0  0  0
  3  7  1  0  0  0  0
  4  1  2  0  0  0  0
  5  4  1  0  0  0  0
  6  1  1  0  0  0  0
  7  8  4  0  0  0  0
  8  5  4  0  0  0  0
  9  5  4  0  0  0  0
 10  2  1  0  0  0  0
 11  3  2  0  0  0  0
 12  2  1  0  0  0  0
 13  3  1  0  0  0  0
 14  9  4  0  0  0  0
 15 14  4  0  0  0  0
 16  4  1  0  0  0  0
  7 15  4  0  0  0  0
M  END
> <From>
www.bindingDB.org

> <BindingDB Reactant_set_id>
50266089

> <Ligand InChI>
InChI=1S/C23H27ClN6O3S/c1-14(2)34(32,33)19-11-6-5-10-18(19)29-20-17(24)13-26-22(30-20)28-16-9-7-8-15(12-16)27-21(31)23(3,4)25/h5-14H,25H2,1-4H3,(H,27,31)(H2,26,28,29,30)

> <Ligand InChI Key>
LCCBBQQRBMWQEO-UHFFFAOYSA-N

> <BindingDB MonomerID>
50044328

> <BindingDB Ligand Name>
CHEMBL3357447

> <Target Name Assigned by Curator or DataSource>
ALK tyrosine kinase receptor

> <Target Source Organism According to Curator or DataSource>
Homo sapiens

> <Ki (nM)>


> <IC50 (nM)>
 5.5

> <Kd (nM)>


> <EC50 (nM)>


> <kon (M-1-s-1)>


> <koff (s-1)>


> <pH>


> <Temp C>


> <Curation/DataSource>
ChEMBL

> <Article DOI>
10.1021/jm5005144

> <PMID>
24785465

> <PubChem AID>


> <Patent Number>


> <Authors>
Song, Z; Yang, Y; Liu, Z; Peng, X; Guo, J; Yang, X; Wu, K; Ai, J; Ding, J; Geng, M; Zhang, A

> <Institution>
Chinese Academy of Sciences

> <Link to Ligand in BindingDB>
http://www.bindingdb.org/bind/chemsearch/marvin/MolStructure.jsp?monomerid=50044328

> <Link to Ligand-Target Pair in BindingDB>
http://www.bindingdb.org/jsp/dbsearch/PrimarySearch_ki.jsp?energyterm=kJ/mole&tag=pol&polymerid=5809&target=ALK+tyrosine+kinase+receptor&column=ki&startPg=0&Increment=50&submit=Search

> <Link to Ligand-Target Pair in BindingDB>
http://www.bindingdb.org/jsp/dbsearch/PrimarySearch_ki.jsp?energyterm=kJ/mole&tag=r21&monomerid=50044328&enzyme=ALK+tyrosine+kinase+receptor&column=ki&startPg=0&Increment=50&submit=Search

> <Ligand HET ID in PDB>


> <PDB ID(s) for Ligand-Target Complex>


> <PubChem CID>
118722216

> <PubChem SID>
103975583

> <ChEBI ID of Ligand>


> <ChEMBL ID of Ligand>
CHEMBL3357447

> <DrugBank ID of Ligand>


> <IUPHAR_GRAC ID of Ligand>


> <KEGG ID of Ligand>


> <ZINC ID of Ligand>
ZINC13832219

> <Number of Protein Chains in Target (>1 implies a multichain complex)>
1

> <BindingDB Target Chain Sequence>
MGAIGLLWLLPLLLSTAAVGSGMGTGQRAGSPAAGPPLQPREPLSYSRLQRKSLAVDFVVPSLFRVYARDLLLPPSSSELKAGRPEARGSLALDCAPLLRLLGPAPGVSWTAGSPAPAEARTLSRVLKGGSVRKLRRAKQLVLELGEEAILEGCVGPPGEAAVGLLQFNLSELFSWWIRQGEGRLRIRLMPEKKASEVGREGRLSAAIRASQPRLLFQIFGTGHSSLESPTNMPSPSPDYFTWNLTWIMKDSFPFLSHRSRYGLECSFDFPCELEYSPPLHDLRNQSWSWRRIPSEEASQMDLLDGPGAERSKEMPRGSFLLLNTSADSKHTILSPWMRSSSEHCTLAVSVHRHLQPSGRYIAQLLPHNEAAREILLMPTPGKHGWTVLQGRIGRPDNPFRVALEYISSGNRSLSAVDFFALKNCSEGTSPGSKMALQSSFTCWNGTVLQLGQACDFHQDCAQGEDESQMCRKLPVGFYCNFEDGFCGWTQGTLSPHTPQWQVRTLKDARFQDHQDHALLLSTTDVPASESATVTSATFPAPIKSSPCELRMSWLIRGVLRGNVSLVLVENKTGKEQGRMVWHVAAYEGLSLWQWMVLPLLDVSDRFWLQMVAWWGQGSRAIVAFDNISISLDCYLTISGEDKILQNTAPKSRNLFERNPNKELKPGENSPRQTPIFDPTVHWLFTTCGASGPHGPTQAQCNNAYQNSNLSVEVGSEGPLKGIQIWKVPATDTYSISGYGAAGGKGGKNTMMRSHGVSVLGIFNLEKDDMLYILVGQQGEDACPSTNQLIQKVCIGENNVIEEEIRVNRSVHEWAGGGGGGGGATYVFKMKDGVPVPLIIAAGGGGRAYGAKTDTFHPERLENNSSVLGLNGNSGAAGGGGGWNDNTSLLWAGKSLQEGATGGHSCPQAMKKWGWETRGGFGGGGGGCSSGGGGGGYIGGNAASNNDPEMDGEDGVSFISPLGILYTPALKVMEGHGEVNIKHYLNCSHCEVDECHMDPESHKVICFCDHGTVLAEDGVSCIVSPTPEPHLPLSLILSVVTSALVAALVLAFSGIMIVYRRKHQELQAMQMELQSPEYKLSKLRTSTIMTDYNPNYCFAGKTSSISDLKEVPRKNITLIRGLGHGAFGEVYEGQVSGMPNDPSPLQVAVKTLPEVCSEQDELDFLMEALIISKFNHQNIVRCIGVSLQSLPRFILLELMAGGDLKSFLRETRPRPSQPSSLAMLDLLHVARDIACGCQYLEENHFIHRDIAARNCLLTCPGPGRVAKIGDFGMARDIYRASYYRKGGCAMLPVKWMPPEAFMEGIFTSKTDTWSFGVLLWEIFSLGYMPYPSKSNQEVLEFVTSGGRMDPPKNCPGPVYRIMTQCWQHQPEDRPNFAIILERIEYCTQDPDVINTALPIEYGPLVEEEEKVPVRPKDPEGVPPLLVSQQAKREEERSPAAPPPLPTTSSGKAAKKPTAAEISVRVPRGPAVEGGHVNMAFSQSNPPSELHKVHGSRNKPTSLWNPTYGSWFTEKPTKKNNPIAKKEPHDRGNLGLEGSCTVPPNVATGRLPGASLLLEPSSLTANMKEVPLFRLRHFPCGNVNYGYQQQGLPLEAATAPGAGHYEDTILKSKNSMNQPGP

> <PDB ID(s) of Target Chain>
2XB7,2XBA,3AOX,5FTO,5FTQ,6E0R,6EBW,6EDL,6MX8

> <UniProt (SwissProt) Recommended Name of Target Chain>
ALK tyrosine kinase receptor

> <UniProt (SwissProt) Entry Name of Target Chain>
ALK_HUMAN

> <UniProt (SwissProt) Primary ID of Target Chain>
Q9UM73

> <UniProt (SwissProt) Secondary ID(s) of Target Chain>
Q4ZFX9,Q53QQ6,Q53RZ4,Q59FI3,Q9Y4K6

> <UniProt (SwissProt) Alternative ID(s) of Target Chain>


> <UniProt (TrEMBL) Submitted Name of Target Chain>


> <UniProt (TrEMBL) Entry Name of Target Chain>


> <UniProt (TrEMBL) Primary ID of Target Chain>


> <UniProt (TrEMBL) Secondary ID(s) of Target Chain>


> <UniProt (TrEMBL) Alternative ID(s) of Target Chain>


$$$$
BindingDB_50044329_mol_1

Vconf v2.0 Academic SN VC001-00000579
 16 16  0  0  0  0  0  0  0  0999 V2000
   -1.4353   -1.4467    0.0000 N   0  0  0  0  0  0  0  0  0  0  0
    0.7008   -1.8536    0.0000 N   0  0  0  0  0  0  0  0  0  0  0
    2.1248   -1.8366    0.0000 C   0  0  0  0  0  0  0  0  0  0  0
   -2.8651   -1.4467    0.0000 C   0  0  0  0  0  0  0  0  0  0  0
   -0.0113   -1.4410    0.0000 C   0  0  0  0  0  0  0  0  0  0  0
   -2.1473   -1.8536    0.0000 C   0  0  0  0  0  0  0  0  0  0  0
   -0.7233   -1.8536    0.0000 C   0  0  0  0  0  0  0  0  0  0  0
    1.4071   -1.4297    0.0000 N   0  0  0  0  0  0  0  0  0  0  0
    2.8311   -1.4241    0.0000 N   0  0  0  0  0  0  0  0  0  0  0
   -2.8424   -0.3787    0.0000 N   0  0  0  0  0  0  0  0  0  0  0
    2.1248   -2.6616    0.0000 N   0  0  0  0  0  0  0  0  0  0  0
   -3.3849   -1.7349    0.0000 N   0  0  0  0  0  0  0  0  0  0  0
   -2.1473   -2.6843    0.0000 C   0  0  0  0  0  0  0  0  0  0  0
   -0.7233   -2.6843    0.0000 C   0  0  0  0  0  0  0  0  0  0  0
   -0.0282   -0.6160    0.0000 C   0  0  0  0  0  0  0  0  0  0  0
   -1.4353   -3.0911    0.0000 C   0  0  0  0  0  0  0  0  0  0  0
  2  5  2  0  0  0  0
  3  8  2  0  0  0  0
  4  6  1  0  0  0  0
  5  7  1  0  0  0  0
  6  1  4  0  0  0  0
  7  1  4  0  0  0  0
  8  2  1  0  0  0  0
  9  3  1  0  0  0  0
 10  4  2  0  0  0  0
 11  3  1  0  0  0  0
 12  4  1  0  0  0  0
 13  6  4  0  0  0  0
 14  7  4  0  0  0  0
 15  5  1  0  0  0  0
 16 14  4  0  0  0  0
 16 13  4  0  0  0  0
M  END
> <From>
www.bindingDB.org

> <BindingDB Reactant_set_id>
50266090

> <Ligand InChI>
InChI=1S/C25H27ClN8O3S/c1-15(2)38(36,37)22-9-4-3-8-21(22)33-23-19(26)13-29-25(34-23)32-17-7-5-6-16(10-17)31-24(35)20(27)11-18-12-28-14-30-18/h3-10,12-15,20H,11,27H2,1-2H3,(H,28,30)(H,31,35)(H2,29,32,33,34)/t20-/m0/s1

> <Ligand InChI Key>
DCMKAPVKXJVEOA-FQEVSTJZSA-N

> <BindingDB MonomerID>
50044329

> <BindingDB Ligand Name>
CHEMBL3357448

> <Target Name Assigned by Curator or DataSource>
ALK tyrosine kinase receptor

> <Target Source Organism According to Curator or DataSource>
Homo sapiens

> <Ki (nM)>


> <IC50 (nM)>
 28

> <Kd (nM)>


> <EC50 (nM)>


> <kon (M-1-s-1)>


> <koff (s-1)>


> <pH>


> <Temp C>


> <Curation/DataSource>
ChEMBL

> <Article DOI>
10.1021/jm5005144

> <PMID>
24785465

> <PubChem AID>


> <Patent Number>


> <Authors>
Song, Z; Yang, Y; Liu, Z; Peng, X; Guo, J; Yang, X; Wu, K; Ai, J; Ding, J; Geng, M; Zhang, A

> <Institution>
Chinese Academy of Sciences

> <Link to Ligand in BindingDB>
http://www.bindingdb.org/bind/chemsearch/marvin/MolStructure.jsp?monomerid=50044329

> <Link to Ligand-Target Pair in BindingDB>
http://www.bindingdb.org/jsp/dbsearch/PrimarySearch_ki.jsp?energyterm=kJ/mole&tag=pol&polymerid=5809&target=ALK+tyrosine+kinase+receptor&column=ki&startPg=0&Increment=50&submit=Search

> <Link to Ligand-Target Pair in BindingDB>
http://www.bindingdb.org/jsp/dbsearch/PrimarySearch_ki.jsp?energyterm=kJ/mole&tag=r21&monomerid=50044329&enzyme=ALK+tyrosine+kinase+receptor&column=ki&startPg=0&Increment=50&submit=Search

> <Ligand HET ID in PDB>


> <PDB ID(s) for Ligand-Target Complex>


> <PubChem CID>
118722217

> <PubChem SID>
103975584

> <ChEBI ID of Ligand>


> <ChEMBL ID of Ligand>
CHEMBL3357448

> <DrugBank ID of Ligand>


> <IUPHAR_GRAC ID of Ligand>


> <KEGG ID of Ligand>


> <ZINC ID of Ligand>
ZINC13832218

> <Number of Protein Chains in Target (>1 implies a multichain complex)>
1

> <BindingDB Target Chain Sequence>
MGAIGLLWLLPLLLSTAAVGSGMGTGQRAGSPAAGPPLQPREPLSYSRLQRKSLAVDFVVPSLFRVYARDLLLPPSSSELKAGRPEARGSLALDCAPLLRLLGPAPGVSWTAGSPAPAEARTLSRVLKGGSVRKLRRAKQLVLELGEEAILEGCVGPPGEAAVGLLQFNLSELFSWWIRQGEGRLRIRLMPEKKASEVGREGRLSAAIRASQPRLLFQIFGTGHSSLESPTNMPSPSPDYFTWNLTWIMKDSFPFLSHRSRYGLECSFDFPCELEYSPPLHDLRNQSWSWRRIPSEEASQMDLLDGPGAERSKEMPRGSFLLLNTSADSKHTILSPWMRSSSEHCTLAVSVHRHLQPSGRYIAQLLPHNEAAREILLMPTPGKHGWTVLQGRIGRPDNPFRVALEYISSGNRSLSAVDFFALKNCSEGTSPGSKMALQSSFTCWNGTVLQLGQACDFHQDCAQGEDESQMCRKLPVGFYCNFEDGFCGWTQGTLSPHTPQWQVRTLKDARFQDHQDHALLLSTTDVPASESATVTSATFPAPIKSSPCELRMSWLIRGVLRGNVSLVLVENKTGKEQGRMVWHVAAYEGLSLWQWMVLPLLDVSDRFWLQMVAWWGQGSRAIVAFDNISISLDCYLTISGEDKILQNTAPKSRNLFERNPNKELKPGENSPRQTPIFDPTVHWLFTTCGASGPHGPTQAQCNNAYQNSNLSVEVGSEGPLKGIQIWKVPATDTYSISGYGAAGGKGGKNTMMRSHGVSVLGIFNLEKDDMLYILVGQQGEDACPSTNQLIQKVCIGENNVIEEEIRVNRSVHEWAGGGGGGGGATYVFKMKDGVPVPLIIAAGGGGRAYGAKTDTFHPERLENNSSVLGLNGNSGAAGGGGGWNDNTSLLWAGKSLQEGATGGHSCPQAMKKWGWETRGGFGGGGGGCSSGGGGGGYIGGNAASNNDPEMDGEDGVSFISPLGILYTPALKVMEGHGEVNIKHYLNCSHCEVDECHMDPESHKVICFCDHGTVLAEDGVSCIVSPTPEPHLPLSLILSVVTSALVAALVLAFSGIMIVYRRKHQELQAMQMELQSPEYKLSKLRTSTIMTDYNPNYCFAGKTSSISDLKEVPRKNITLIRGLGHGAFGEVYEGQVSGMPNDPSPLQVAVKTLPEVCSEQDELDFLMEALIISKFNHQNIVRCIGVSLQSLPRFILLELMAGGDLKSFLRETRPRPSQPSSLAMLDLLHVARDIACGCQYLEENHFIHRDIAARNCLLTCPGPGRVAKIGDFGMARDIYRASYYRKGGCAMLPVKWMPPEAFMEGIFTSKTDTWSFGVLLWEIFSLGYMPYPSKSNQEVLEFVTSGGRMDPPKNCPGPVYRIMTQCWQHQPEDRPNFAIILERIEYCTQDPDVINTALPIEYGPLVEEEEKVPVRPKDPEGVPPLLVSQQAKREEERSPAAPPPLPTTSSGKAAKKPTAAEISVRVPRGPAVEGGHVNMAFSQSNPPSELHKVHGSRNKPTSLWNPTYGSWFTEKPTKKNNPIAKKEPHDRGNLGLEGSCTVPPNVATGRLPGASLLLEPSSLTANMKEVPLFRLRHFPCGNVNYGYQQQGLPLEAATAPGAGHYEDTILKSKNSMNQPGP

> <PDB ID(s) of Target Chain>
2XB7,2XBA,3AOX,5FTO,5FTQ,6E0R,6EBW,6EDL,6MX8

> <UniProt (SwissProt) Recommended Name of Target Chain>
ALK tyrosine kinase receptor

> <UniProt (SwissProt) Entry Name of Target Chain>
ALK_HUMAN

> <UniProt (SwissProt) Primary ID of Target Chain>
Q9UM73

> <UniProt (SwissProt) Secondary ID(s) of Target Chain>
Q4ZFX9,Q53QQ6,Q53RZ4,Q59FI3,Q9Y4K6

> <UniProt (SwissProt) Alternative ID(s) of Target Chain>


> <UniProt (TrEMBL) Submitted Name of Target Chain>


> <UniProt (TrEMBL) Entry Name of Target Chain>


> <UniProt (TrEMBL) Primary ID of Target Chain>


> <UniProt (TrEMBL) Secondary ID(s) of Target Chain>


> <UniProt (TrEMBL) Alternative ID(s) of Target Chain>


$$$$
BindingDB_50044374_mol_1

Vconf v2.0 Academic SN VC001-00000579
 33 35  0  0  0  0  0  0  0  0999 V2000
   25.8020   -3.8530    0.0000 C   0  0  0  0  0  0  0  0  0  0  0
   25.0891   -4.2697    0.0000 C   0  0  0  0  0  0  0  0  0  0  0
   25.0900   -5.0936    0.0000 O   0  0  0  0  0  0  0  0  0  0  0
   24.3779   -3.8585    0.0000 N   0  0  0  0  0  0  0  0  0  0  0
   23.6635   -4.2712    0.0000 C   0  0  0  0  0  0  0  0  0  0  0
   22.9481   -3.8600    0.0000 C   0  0  0  0  0  0  0  0  0  0  0
   22.2337   -4.2727    0.0000 C   0  0  0  0  0  0  0  0  0  0  0
   22.2346   -5.0966    0.0000 C   0  0  0  0  0  0  0  0  0  0  0
   22.9499   -5.5077    0.0000 C   0  0  0  0  0  0  0  0  0  0  0
   23.6643   -5.0951    0.0000 C   0  0  0  0  0  0  0  0  0  0  0
   21.5226   -3.8615    0.0000 N   0  0  0  0  0  0  0  0  0  0  0
   20.8081   -4.2742    0.0000 C   0  0  0  0  0  0  0  0  0  0  0
   20.0969   -3.8630    0.0000 N   0  0  0  0  0  0  0  0  0  0  0
   19.3825   -4.2756    0.0000 C   0  0  0  0  0  0  0  0  0  0  0
   19.3833   -5.0995    0.0000 C   0  0  0  0  0  0  0  0  0  0  0
   20.0987   -5.5107    0.0000 C   0  0  0  0  0  0  0  0  0  0  0
   20.8090   -5.0980    0.0000 N   0  0  0  0  0  0  0  0  0  0  0
   18.6672   -3.8645    0.0000 N   0  0  0  0  0  0  0  0  0  0  0
   17.9569   -4.2772    0.0000 C   0  0  0  0  0  0  0  0  0  0  0
   17.2416   -3.8660    0.0000 C   0  0  0  0  0  0  0  0  0  0  0
   16.5271   -4.2787    0.0000 C   0  0  0  0  0  0  0  0  0  0  0
   16.5280   -5.1025    0.0000 C   0  0  0  0  0  0  0  0  0  0  0
   17.2433   -5.5138    0.0000 C   0  0  0  0  0  0  0  0  0  0  0
   17.9578   -5.1010    0.0000 C   0  0  0  0  0  0  0  0  0  0  0
   17.2408   -3.0421    0.0000 S   0  0  0  0  0  0  0  0  0  0  0
   18.0646   -3.0412    0.0000 O   0  0  0  0  0  0  0  0  0  0  0
   17.2399   -2.2183    0.0000 O   0  0  0  0  0  0  0  0  0  0  0
   16.4169   -3.0430    0.0000 C   0  0  0  0  0  0  0  0  0  0  0
   16.0042   -2.3327    0.0000 C   0  0  0  0  0  0  0  0  0  0  0
   16.0057   -3.7584    0.0000 C   0  0  0  0  0  0  0  0  0  0  0
   18.6690   -5.5123    0.0000 Cl  0  0  0  0  0  0  0  0  0  0  0
   25.8015   -3.0291    0.0000 C   0  0  0  0  0  0  0  0  0  0  0
   26.5146   -2.6167    0.0000 N   0  0  0  0  0  0  0  0  0  0  0
  2  1  1  0  0  0  0
  2  3  2  0  0  0  0
  2  4  1  0  0  0  0
  5  6  4  0  0  0  0
  6  7  4  0  0  0  0
  7  8  4  0  0  0  0
  8  9  4  0  0  0  0
  9 10  4  0  0  0  0
  5 10  4  0  0  0  0
 12 13  4  0  0  0  0
 13 14  4  0  0  0  0
 14 15  4  0  0  0  0
 15 16  4  0  0  0  0
 16 17  4  0  0  0  0
 12 17  4  0  0  0  0
 19 20  4  0  0  0  0
 20 21  4  0  0  0  0
 21 22  4  0  0  0  0
 22 23  4  0  0  0  0
 23 24  4  0  0  0  0
 19 24  4  0  0  0  0
 25 26  2  0  0  0  0
 25 27  2  0  0  0  0
 28 29  1  0  0  0  0
 28 30  1  0  0  0  0
 25 28  1  0  0  0  0
 20 25  1  0  0  0  0
 18 19  1  0  0  0  0
 14 18  1  0  0  0  0
 15 31  1  0  0  0  0
 11 12  1  0  0  0  0
  7 11  1  0  0  0  0
  4  5  1  0  0  0  0
  1 32  1  0  0  0  0
 32 33  1  0  0  0  0
M  END
> <From>
www.bindingDB.org

> <BindingDB Reactant_set_id>
50266091

> <Ligand InChI>
InChI=1S/C22H25ClN6O3S/c1-14(2)33(31,32)19-9-4-3-8-18(19)28-21-17(23)13-25-22(29-21)27-16-7-5-6-15(12-16)26-20(30)10-11-24/h3-9,12-14H,10-11,24H2,1-2H3,(H,26,30)(H2,25,27,28,29)

> <Ligand InChI Key>
SXWCURZBDVOHEJ-UHFFFAOYSA-N

> <BindingDB MonomerID>
50044374

> <BindingDB Ligand Name>
CHEMBL3357449

> <Target Name Assigned by Curator or DataSource>
ALK tyrosine kinase receptor

> <Target Source Organism According to Curator or DataSource>
Homo sapiens

> <Ki (nM)>


> <IC50 (nM)>
 3.1

> <Kd (nM)>


> <EC50 (nM)>


> <kon (M-1-s-1)>


> <koff (s-1)>


> <pH>


> <Temp C>


> <Curation/DataSource>
ChEMBL

> <Article DOI>
10.1021/jm5005144

> <PMID>
24785465

> <PubChem AID>


> <Patent Number>


> <Authors>
Song, Z; Yang, Y; Liu, Z; Peng, X; Guo, J; Yang, X; Wu, K; Ai, J; Ding, J; Geng, M; Zhang, A

> <Institution>
Chinese Academy of Sciences

> <Link to Ligand in BindingDB>
http://www.bindingdb.org/bind/chemsearch/marvin/MolStructure.jsp?monomerid=50044374

> <Link to Ligand-Target Pair in BindingDB>
http://www.bindingdb.org/jsp/dbsearch/PrimarySearch_ki.jsp?energyterm=kJ/mole&tag=pol&polymerid=5809&target=ALK+tyrosine+kinase+receptor&column=ki&startPg=0&Increment=50&submit=Search

> <Link to Ligand-Target Pair in BindingDB>
http://www.bindingdb.org/jsp/dbsearch/PrimarySearch_ki.jsp?energyterm=kJ/mole&tag=r21&monomerid=50044374&enzyme=ALK+tyrosine+kinase+receptor&column=ki&startPg=0&Increment=50&submit=Search

> <Ligand HET ID in PDB>


> <PDB ID(s) for Ligand-Target Complex>


> <PubChem CID>
118722218

> <PubChem SID>
312697476

> <ChEBI ID of Ligand>


> <ChEMBL ID of Ligand>
CHEMBL3357449

> <DrugBank ID of Ligand>


> <IUPHAR_GRAC ID of Ligand>


> <KEGG ID of Ligand>


> <ZINC ID of Ligand>


> <Number of Protein Chains in Target (>1 implies a multichain complex)>
1

> <BindingDB Target Chain Sequence>
MGAIGLLWLLPLLLSTAAVGSGMGTGQRAGSPAAGPPLQPREPLSYSRLQRKSLAVDFVVPSLFRVYARDLLLPPSSSELKAGRPEARGSLALDCAPLLRLLGPAPGVSWTAGSPAPAEARTLSRVLKGGSVRKLRRAKQLVLELGEEAILEGCVGPPGEAAVGLLQFNLSELFSWWIRQGEGRLRIRLMPEKKASEVGREGRLSAAIRASQPRLLFQIFGTGHSSLESPTNMPSPSPDYFTWNLTWIMKDSFPFLSHRSRYGLECSFDFPCELEYSPPLHDLRNQSWSWRRIPSEEASQMDLLDGPGAERSKEMPRGSFLLLNTSADSKHTILSPWMRSSSEHCTLAVSVHRHLQPSGRYIAQLLPHNEAAREILLMPTPGKHGWTVLQGRIGRPDNPFRVALEYISSGNRSLSAVDFFALKNCSEGTSPGSKMALQSSFTCWNGTVLQLGQACDFHQDCAQGEDESQMCRKLPVGFYCNFEDGFCGWTQGTLSPHTPQWQVRTLKDARFQDHQDHALLLSTTDVPASESATVTSATFPAPIKSSPCELRMSWLIRGVLRGNVSLVLVENKTGKEQGRMVWHVAAYEGLSLWQWMVLPLLDVSDRFWLQMVAWWGQGSRAIVAFDNISISLDCYLTISGEDKILQNTAPKSRNLFERNPNKELKPGENSPRQTPIFDPTVHWLFTTCGASGPHGPTQAQCNNAYQNSNLSVEVGSEGPLKGIQIWKVPATDTYSISGYGAAGGKGGKNTMMRSHGVSVLGIFNLEKDDMLYILVGQQGEDACPSTNQLIQKVCIGENNVIEEEIRVNRSVHEWAGGGGGGGGATYVFKMKDGVPVPLIIAAGGGGRAYGAKTDTFHPERLENNSSVLGLNGNSGAAGGGGGWNDNTSLLWAGKSLQEGATGGHSCPQAMKKWGWETRGGFGGGGGGCSSGGGGGGYIGGNAASNNDPEMDGEDGVSFISPLGILYTPALKVMEGHGEVNIKHYLNCSHCEVDECHMDPESHKVICFCDHGTVLAEDGVSCIVSPTPEPHLPLSLILSVVTSALVAALVLAFSGIMIVYRRKHQELQAMQMELQSPEYKLSKLRTSTIMTDYNPNYCFAGKTSSISDLKEVPRKNITLIRGLGHGAFGEVYEGQVSGMPNDPSPLQVAVKTLPEVCSEQDELDFLMEALIISKFNHQNIVRCIGVSLQSLPRFILLELMAGGDLKSFLRETRPRPSQPSSLAMLDLLHVARDIACGCQYLEENHFIHRDIAARNCLLTCPGPGRVAKIGDFGMARDIYRASYYRKGGCAMLPVKWMPPEAFMEGIFTSKTDTWSFGVLLWEIFSLGYMPYPSKSNQEVLEFVTSGGRMDPPKNCPGPVYRIMTQCWQHQPEDRPNFAIILERIEYCTQDPDVINTALPIEYGPLVEEEEKVPVRPKDPEGVPPLLVSQQAKREEERSPAAPPPLPTTSSGKAAKKPTAAEISVRVPRGPAVEGGHVNMAFSQSNPPSELHKVHGSRNKPTSLWNPTYGSWFTEKPTKKNNPIAKKEPHDRGNLGLEGSCTVPPNVATGRLPGASLLLEPSSLTANMKEVPLFRLRHFPCGNVNYGYQQQGLPLEAATAPGAGHYEDTILKSKNSMNQPGP

> <PDB ID(s) of Target Chain>
2XB7,2XBA,3AOX,5FTO,5FTQ,6E0R,6EBW,6EDL,6MX8

> <UniProt (SwissProt) Recommended Name of Target Chain>
ALK tyrosine kinase receptor

> <UniProt (SwissProt) Entry Name of Target Chain>
ALK_HUMAN

> <UniProt (SwissProt) Primary ID of Target Chain>
Q9UM73

> <UniProt (SwissProt) Secondary ID(s) of Target Chain>
Q4ZFX9,Q53QQ6,Q53RZ4,Q59FI3,Q9Y4K6

> <UniProt (SwissProt) Alternative ID(s) of Target Chain>


> <UniProt (TrEMBL) Submitted Name of Target Chain>


> <UniProt (TrEMBL) Entry Name of Target Chain>


> <UniProt (TrEMBL) Primary ID of Target Chain>


> <UniProt (TrEMBL) Secondary ID(s) of Target Chain>


> <UniProt (TrEMBL) Alternative ID(s) of Target Chain>


$$$$

  SciTegic05221516342D

 34 36  0  0  0  0            999 V2000
   11.8245   -9.2078    0.0000 C   0  0
   11.1174   -9.6211    0.0000 C   0  0
   11.1182  -10.4383    0.0000 O   0  0
   10.4120   -9.2133    0.0000 N   0  0
    9.7033   -9.6226    0.0000 C   0  0
    8.9938   -9.2148    0.0000 C   0  0
    8.2851   -9.6241    0.0000 C   0  0
    8.2860  -10.4413    0.0000 C   0  0
    8.9955  -10.8491    0.0000 C   0  0
    9.7042  -10.4398    0.0000 C   0  0
    7.5798   -9.2162    0.0000 N   0  0
    6.8711   -9.6256    0.0000 C   0  0
    6.1657   -9.2177    0.0000 N   0  0
    5.4570   -9.6271    0.0000 C   0  0
    5.4579  -10.4443    0.0000 C   0  0
    6.1674  -10.8521    0.0000 C   0  0
    6.8720  -10.4428    0.0000 N   0  0
    4.7475   -9.2192    0.0000 N   0  0
    4.0430   -9.6286    0.0000 C   0  0
    3.3335   -9.2207    0.0000 C   0  0
    2.6248   -9.6300    0.0000 C   0  0
    2.6257  -10.4472    0.0000 C   0  0
    3.3352  -10.8551    0.0000 C   0  0
    4.0439  -10.4457    0.0000 C   0  0
    3.3326   -8.4035    0.0000 S   0  0
    4.1498   -8.4027    0.0000 O   0  0
    3.3318   -7.5863    0.0000 O   0  0
    2.5154   -8.4044    0.0000 C   0  0
    2.1061   -7.6998    0.0000 C   0  0
    2.1076   -9.1139    0.0000 C   0  0
    4.7492  -10.8536    0.0000 Cl  0  0
   11.8239   -8.3907    0.0000 C   0  0
   12.5313   -7.9816    0.0000 C   0  0
   12.5308   -7.1644    0.0000 N   0  0
  2  1  1  0
  2  3  2  0
  2  4  1  0
  5  6  1  0
  6  7  2  0
  7  8  1  0
  8  9  2  0
  9 10  1  0
  5 10  2  0
 12 13  1  0
 13 14  2  0
 14 15  1  0
 15 16  2  0
 16 17  1  0
 12 17  2  0
 19 20  1  0
 20 21  2  0
 21 22  1  0
 22 23  2  0
 23 24  1  0
 19 24  2  0
 25 26  2  0
 25 27  2  0
 28 29  1  0
 28 30  1  0
 25 28  1  0
 20 25  1  0
 18 19  1  0
 14 18  1  0
 15 31  1  0
 11 12  1  0
  7 11  1  0
  4  5  1  0
  1 32  1  0
 32 33  1  0
 33 34  1  0
M  END
> <From>
www.bindingDB.org

> <BindingDB Reactant_set_id>
50266092

> <Ligand InChI>
InChI=1S/C23H27ClN6O3S/c1-15(2)34(32,33)20-10-4-3-9-19(20)29-22-18(24)14-26-23(30-22)28-17-8-5-7-16(13-17)27-21(31)11-6-12-25/h3-5,7-10,13-15H,6,11-12,25H2,1-2H3,(H,27,31)(H2,26,28,29,30)

> <Ligand InChI Key>
ATOVGFGJTVTJSL-UHFFFAOYSA-N

> <BindingDB MonomerID>
50044416

> <BindingDB Ligand Name>
CHEMBL3357450

> <Target Name Assigned by Curator or DataSource>
ALK tyrosine kinase receptor

> <Target Source Organism According to Curator or DataSource>
Homo sapiens

> <Ki (nM)>


> <IC50 (nM)>
 19

> <Kd (nM)>


> <EC50 (nM)>


> <kon (M-1-s-1)>


> <koff (s-1)>


> <pH>


> <Temp C>


> <Curation/DataSource>
ChEMBL

> <Article DOI>
10.1021/jm5005144

> <PMID>
24785465

> <PubChem AID>


> <Patent Number>


> <Authors>
Song, Z; Yang, Y; Liu, Z; Peng, X; Guo, J; Yang, X; Wu, K; Ai, J; Ding, J; Geng, M; Zhang, A

> <Institution>
Chinese Academy of Sciences

> <Link to Ligand in BindingDB>
http://www.bindingdb.org/bind/chemsearch/marvin/MolStructure.jsp?monomerid=50044416

> <Link to Ligand-Target Pair in BindingDB>
http://www.bindingdb.org/jsp/dbsearch/PrimarySearch_ki.jsp?energyterm=kJ/mole&tag=pol&polymerid=5809&target=ALK+tyrosine+kinase+receptor&column=ki&startPg=0&Increment=50&submit=Search

> <Link to Ligand-Target Pair in BindingDB>
http://www.bindingdb.org/jsp/dbsearch/PrimarySearch_ki.jsp?energyterm=kJ/mole&tag=r21&monomerid=50044416&enzyme=ALK+tyrosine+kinase+receptor&column=ki&startPg=0&Increment=50&submit=Search

> <Ligand HET ID in PDB>


> <PDB ID(s) for Ligand-Target Complex>


> <PubChem CID>
118722219

> <PubChem SID>
103975670

> <ChEBI ID of Ligand>


> <ChEMBL ID of Ligand>
CHEMBL3357450

> <DrugBank ID of Ligand>


> <IUPHAR_GRAC ID of Ligand>


> <KEGG ID of Ligand>


> <ZINC ID of Ligand>
ZINC13832348

> <Number of Protein Chains in Target (>1 implies a multichain complex)>
1

> <BindingDB Target Chain Sequence>
MGAIGLLWLLPLLLSTAAVGSGMGTGQRAGSPAAGPPLQPREPLSYSRLQRKSLAVDFVVPSLFRVYARDLLLPPSSSELKAGRPEARGSLALDCAPLLRLLGPAPGVSWTAGSPAPAEARTLSRVLKGGSVRKLRRAKQLVLELGEEAILEGCVGPPGEAAVGLLQFNLSELFSWWIRQGEGRLRIRLMPEKKASEVGREGRLSAAIRASQPRLLFQIFGTGHSSLESPTNMPSPSPDYFTWNLTWIMKDSFPFLSHRSRYGLECSFDFPCELEYSPPLHDLRNQSWSWRRIPSEEASQMDLLDGPGAERSKEMPRGSFLLLNTSADSKHTILSPWMRSSSEHCTLAVSVHRHLQPSGRYIAQLLPHNEAAREILLMPTPGKHGWTVLQGRIGRPDNPFRVALEYISSGNRSLSAVDFFALKNCSEGTSPGSKMALQSSFTCWNGTVLQLGQACDFHQDCAQGEDESQMCRKLPVGFYCNFEDGFCGWTQGTLSPHTPQWQVRTLKDARFQDHQDHALLLSTTDVPASESATVTSATFPAPIKSSPCELRMSWLIRGVLRGNVSLVLVENKTGKEQGRMVWHVAAYEGLSLWQWMVLPLLDVSDRFWLQMVAWWGQGSRAIVAFDNISISLDCYLTISGEDKILQNTAPKSRNLFERNPNKELKPGENSPRQTPIFDPTVHWLFTTCGASGPHGPTQAQCNNAYQNSNLSVEVGSEGPLKGIQIWKVPATDTYSISGYGAAGGKGGKNTMMRSHGVSVLGIFNLEKDDMLYILVGQQGEDACPSTNQLIQKVCIGENNVIEEEIRVNRSVHEWAGGGGGGGGATYVFKMKDGVPVPLIIAAGGGGRAYGAKTDTFHPERLENNSSVLGLNGNSGAAGGGGGWNDNTSLLWAGKSLQEGATGGHSCPQAMKKWGWETRGGFGGGGGGCSSGGGGGGYIGGNAASNNDPEMDGEDGVSFISPLGILYTPALKVMEGHGEVNIKHYLNCSHCEVDECHMDPESHKVICFCDHGTVLAEDGVSCIVSPTPEPHLPLSLILSVVTSALVAALVLAFSGIMIVYRRKHQELQAMQMELQSPEYKLSKLRTSTIMTDYNPNYCFAGKTSSISDLKEVPRKNITLIRGLGHGAFGEVYEGQVSGMPNDPSPLQVAVKTLPEVCSEQDELDFLMEALIISKFNHQNIVRCIGVSLQSLPRFILLELMAGGDLKSFLRETRPRPSQPSSLAMLDLLHVARDIACGCQYLEENHFIHRDIAARNCLLTCPGPGRVAKIGDFGMARDIYRASYYRKGGCAMLPVKWMPPEAFMEGIFTSKTDTWSFGVLLWEIFSLGYMPYPSKSNQEVLEFVTSGGRMDPPKNCPGPVYRIMTQCWQHQPEDRPNFAIILERIEYCTQDPDVINTALPIEYGPLVEEEEKVPVRPKDPEGVPPLLVSQQAKREEERSPAAPPPLPTTSSGKAAKKPTAAEISVRVPRGPAVEGGHVNMAFSQSNPPSELHKVHGSRNKPTSLWNPTYGSWFTEKPTKKNNPIAKKEPHDRGNLGLEGSCTVPPNVATGRLPGASLLLEPSSLTANMKEVPLFRLRHFPCGNVNYGYQQQGLPLEAATAPGAGHYEDTILKSKNSMNQPGP

> <PDB ID(s) of Target Chain>
2XB7,2XBA,3AOX,5FTO,5FTQ,6E0R,6EBW,6EDL,6MX8

> <UniProt (SwissProt) Recommended Name of Target Chain>
ALK tyrosine kinase receptor

> <UniProt (SwissProt) Entry Name of Target Chain>
ALK_HUMAN

> <UniProt (SwissProt) Primary ID of Target Chain>
Q9UM73

> <UniProt (SwissProt) Secondary ID(s) of Target Chain>
Q4ZFX9,Q53QQ6,Q53RZ4,Q59FI3,Q9Y4K6

> <UniProt (SwissProt) Alternative ID(s) of Target Chain>


> <UniProt (TrEMBL) Submitted Name of Target Chain>


> <UniProt (TrEMBL) Entry Name of Target Chain>


> <UniProt (TrEMBL) Primary ID of Target Chain>


> <UniProt (TrEMBL) Secondary ID(s) of Target Chain>


> <UniProt (TrEMBL) Alternative ID(s) of Target Chain>


$$$$
BindingDB_50044422_mol_1

Vconf v2.0 Academic SN VC001-00000579
 34 37  0  0  0  0  0  0  0  0999 V2000
   25.8081  -13.4258    0.0000 N   0  0  0  0  0  0  0  0  0  0  0
   25.2338  -12.8340    0.0000 C   0  0  0  0  0  0  0  0  0  0  0
   24.6420  -13.4082    0.0000 C   0  0  0  0  0  0  0  0  0  0  0
   25.2162  -14.0000    0.0000 C   0  0  0  0  0  0  0  0  0  0  0
   25.2463  -12.0102    0.0000 C   0  0  0  0  0  0  0  0  0  0  0
   25.9673  -11.6092    0.0000 O   0  0  0  0  0  0  0  0  0  0  0
   24.5419  -11.5876    0.0000 N   0  0  0  0  0  0  0  0  0  0  0
   23.8209  -11.9886    0.0000 C   0  0  0  0  0  0  0  0  0  0  0
   23.1124  -11.5660    0.0000 C   0  0  0  0  0  0  0  0  0  0  0
   22.3914  -11.9671    0.0000 C   0  0  0  0  0  0  0  0  0  0  0
   22.3789  -12.7908    0.0000 C   0  0  0  0  0  0  0  0  0  0  0
   23.0875  -13.2135    0.0000 C   0  0  0  0  0  0  0  0  0  0  0
   23.8084  -12.8124    0.0000 C   0  0  0  0  0  0  0  0  0  0  0
   21.6870  -11.5444    0.0000 N   0  0  0  0  0  0  0  0  0  0  0
   20.9659  -11.9455    0.0000 C   0  0  0  0  0  0  0  0  0  0  0
   20.2616  -11.5229    0.0000 N   0  0  0  0  0  0  0  0  0  0  0
   19.5405  -11.9239    0.0000 C   0  0  0  0  0  0  0  0  0  0  0
   19.5281  -12.7477    0.0000 C   0  0  0  0  0  0  0  0  0  0  0
   20.2367  -13.1704    0.0000 C   0  0  0  0  0  0  0  0  0  0  0
   20.9534  -12.7692    0.0000 N   0  0  0  0  0  0  0  0  0  0  0
   18.8320  -11.5012    0.0000 N   0  0  0  0  0  0  0  0  0  0  0
   18.1151  -11.9023    0.0000 C   0  0  0  0  0  0  0  0  0  0  0
   17.4066  -11.4796    0.0000 C   0  0  0  0  0  0  0  0  0  0  0
   16.6856  -11.8807    0.0000 C   0  0  0  0  0  0  0  0  0  0  0
   16.6731  -12.7044    0.0000 C   0  0  0  0  0  0  0  0  0  0  0
   17.3817  -13.1271    0.0000 C   0  0  0  0  0  0  0  0  0  0  0
   18.1027  -12.7261    0.0000 C   0  0  0  0  0  0  0  0  0  0  0
   17.4191  -10.6559    0.0000 S   0  0  0  0  0  0  0  0  0  0  0
   18.2428  -10.6684    0.0000 O   0  0  0  0  0  0  0  0  0  0  0
   16.7154  -10.2283    0.0000 C   0  0  0  0  0  0  0  0  0  0  0
   15.9943  -10.6293    0.0000 C   0  0  0  0  0  0  0  0  0  0  0
   16.7300   -9.4034    0.0000 C   0  0  0  0  0  0  0  0  0  0  0
   18.8071  -13.1487    0.0000 Cl  0  0  0  0  0  0  0  0  0  0  0
   17.8250   -9.9361    0.0000 O   0  0  0  0  0  0  0  0  0  0  0
  1  2  1  0  0  0  0
  2  3  1  0  0  0  0
  3  4  1  0  0  0  0
  1  4  1  0  0  0  0
  5  6  2  0  0  0  0
  5  7  1  0  0  0  0
  2  5  1  0  0  0  0
  8  9  4  0  0  0  0
  9 10  4  0  0  0  0
 10 11  4  0  0  0  0
 11 12  4  0  0  0  0
 12 13  4  0  0  0  0
  8 13  4  0  0  0  0
 15 16  4  0  0  0  0
 16 17  4  0  0  0  0
 17 18  4  0  0  0  0
 18 19  4  0  0  0  0
 19 20  4  0  0  0  0
 15 20  4  0  0  0  0
 22 23  4  0  0  0  0
 23 24  4  0  0  0  0
 24 25  4  0  0  0  0
 25 26  4  0  0  0  0
 26 27  4  0  0  0  0
 22 27  4  0  0  0  0
 28 29  2  0  0  0  0
 30 31  1  0  0  0  0
 30 32  1  0  0  0  0
 28 30  1  0  0  0  0
 23 28  1  0  0  0  0
 21 22  1  0  0  0  0
 17 21  1  0  0  0  0
 18 33  1  0  0  0  0
 14 15  1  0  0  0  0
 10 14  1  0  0  0  0
  7  8  1  0  0  0  0
 28 34  2  0  0  0  0
M  END
> <From>
www.bindingDB.org

> <BindingDB Reactant_set_id>
50266093

> <Ligand InChI>
InChI=1S/C23H25ClN6O3S/c1-14(2)34(32,33)20-9-4-3-8-18(20)29-21-17(24)13-26-23(30-21)28-16-7-5-6-15(12-16)27-22(31)19-10-11-25-19/h3-9,12-14,19,25H,10-11H2,1-2H3,(H,27,31)(H2,26,28,29,30)

> <Ligand InChI Key>
SOBJVDFONGAIIH-UHFFFAOYSA-N

> <BindingDB MonomerID>
50044422

> <BindingDB Ligand Name>
CHEMBL3357451

> <Target Name Assigned by Curator or DataSource>
ALK tyrosine kinase receptor

> <Target Source Organism According to Curator or DataSource>
Homo sapiens

> <Ki (nM)>


> <IC50 (nM)>
 44

> <Kd (nM)>


> <EC50 (nM)>


> <kon (M-1-s-1)>


> <koff (s-1)>


> <pH>


> <Temp C>


> <Curation/DataSource>
ChEMBL

> <Article DOI>
10.1021/jm5005144

> <PMID>
24785465

> <PubChem AID>


> <Patent Number>


> <Authors>
Song, Z; Yang, Y; Liu, Z; Peng, X; Guo, J; Yang, X; Wu, K; Ai, J; Ding, J; Geng, M; Zhang, A

> <Institution>
Chinese Academy of Sciences

> <Link to Ligand in BindingDB>
http://www.bindingdb.org/bind/chemsearch/marvin/MolStructure.jsp?monomerid=50044422

> <Link to Ligand-Target Pair in BindingDB>
http://www.bindingdb.org/jsp/dbsearch/PrimarySearch_ki.jsp?energyterm=kJ/mole&tag=pol&polymerid=5809&target=ALK+tyrosine+kinase+receptor&column=ki&startPg=0&Increment=50&submit=Search

> <Link to Ligand-Target Pair in BindingDB>
http://www.bindingdb.org/jsp/dbsearch/PrimarySearch_ki.jsp?energyterm=kJ/mole&tag=r21&monomerid=50044422&enzyme=ALK+tyrosine+kinase+receptor&column=ki&startPg=0&Increment=50&submit=Search

> <Ligand HET ID in PDB>


> <PDB ID(s) for Ligand-Target Complex>


> <PubChem CID>
118722220

> <PubChem SID>
313068203

> <ChEBI ID of Ligand>


> <ChEMBL ID of Ligand>
CHEMBL3357451

> <DrugBank ID of Ligand>


> <IUPHAR_GRAC ID of Ligand>


> <KEGG ID of Ligand>


> <ZINC ID of Ligand>


> <Number of Protein Chains in Target (>1 implies a multichain complex)>
1

> <BindingDB Target Chain Sequence>
MGAIGLLWLLPLLLSTAAVGSGMGTGQRAGSPAAGPPLQPREPLSYSRLQRKSLAVDFVVPSLFRVYARDLLLPPSSSELKAGRPEARGSLALDCAPLLRLLGPAPGVSWTAGSPAPAEARTLSRVLKGGSVRKLRRAKQLVLELGEEAILEGCVGPPGEAAVGLLQFNLSELFSWWIRQGEGRLRIRLMPEKKASEVGREGRLSAAIRASQPRLLFQIFGTGHSSLESPTNMPSPSPDYFTWNLTWIMKDSFPFLSHRSRYGLECSFDFPCELEYSPPLHDLRNQSWSWRRIPSEEASQMDLLDGPGAERSKEMPRGSFLLLNTSADSKHTILSPWMRSSSEHCTLAVSVHRHLQPSGRYIAQLLPHNEAAREILLMPTPGKHGWTVLQGRIGRPDNPFRVALEYISSGNRSLSAVDFFALKNCSEGTSPGSKMALQSSFTCWNGTVLQLGQACDFHQDCAQGEDESQMCRKLPVGFYCNFEDGFCGWTQGTLSPHTPQWQVRTLKDARFQDHQDHALLLSTTDVPASESATVTSATFPAPIKSSPCELRMSWLIRGVLRGNVSLVLVENKTGKEQGRMVWHVAAYEGLSLWQWMVLPLLDVSDRFWLQMVAWWGQGSRAIVAFDNISISLDCYLTISGEDKILQNTAPKSRNLFERNPNKELKPGENSPRQTPIFDPTVHWLFTTCGASGPHGPTQAQCNNAYQNSNLSVEVGSEGPLKGIQIWKVPATDTYSISGYGAAGGKGGKNTMMRSHGVSVLGIFNLEKDDMLYILVGQQGEDACPSTNQLIQKVCIGENNVIEEEIRVNRSVHEWAGGGGGGGGATYVFKMKDGVPVPLIIAAGGGGRAYGAKTDTFHPERLENNSSVLGLNGNSGAAGGGGGWNDNTSLLWAGKSLQEGATGGHSCPQAMKKWGWETRGGFGGGGGGCSSGGGGGGYIGGNAASNNDPEMDGEDGVSFISPLGILYTPALKVMEGHGEVNIKHYLNCSHCEVDECHMDPESHKVICFCDHGTVLAEDGVSCIVSPTPEPHLPLSLILSVVTSALVAALVLAFSGIMIVYRRKHQELQAMQMELQSPEYKLSKLRTSTIMTDYNPNYCFAGKTSSISDLKEVPRKNITLIRGLGHGAFGEVYEGQVSGMPNDPSPLQVAVKTLPEVCSEQDELDFLMEALIISKFNHQNIVRCIGVSLQSLPRFILLELMAGGDLKSFLRETRPRPSQPSSLAMLDLLHVARDIACGCQYLEENHFIHRDIAARNCLLTCPGPGRVAKIGDFGMARDIYRASYYRKGGCAMLPVKWMPPEAFMEGIFTSKTDTWSFGVLLWEIFSLGYMPYPSKSNQEVLEFVTSGGRMDPPKNCPGPVYRIMTQCWQHQPEDRPNFAIILERIEYCTQDPDVINTALPIEYGPLVEEEEKVPVRPKDPEGVPPLLVSQQAKREEERSPAAPPPLPTTSSGKAAKKPTAAEISVRVPRGPAVEGGHVNMAFSQSNPPSELHKVHGSRNKPTSLWNPTYGSWFTEKPTKKNNPIAKKEPHDRGNLGLEGSCTVPPNVATGRLPGASLLLEPSSLTANMKEVPLFRLRHFPCGNVNYGYQQQGLPLEAATAPGAGHYEDTILKSKNSMNQPGP

> <PDB ID(s) of Target Chain>
2XB7,2XBA,3AOX,5FTO,5FTQ,6E0R,6EBW,6EDL,6MX8

> <UniProt (SwissProt) Recommended Name of Target Chain>
ALK tyrosine kinase receptor

> <UniProt (SwissProt) Entry Name of Target Chain>
ALK_HUMAN

> <UniProt (SwissProt) Primary ID of Target Chain>
Q9UM73

> <UniProt (SwissProt) Secondary ID(s) of Target Chain>
Q4ZFX9,Q53QQ6,Q53RZ4,Q59FI3,Q9Y4K6

> <UniProt (SwissProt) Alternative ID(s) of Target Chain>


> <UniProt (TrEMBL) Submitted Name of Target Chain>


> <UniProt (TrEMBL) Entry Name of Target Chain>


> <UniProt (TrEMBL) Primary ID of Target Chain>


> <UniProt (TrEMBL) Secondary ID(s) of Target Chain>


> <UniProt (TrEMBL) Alternative ID(s) of Target Chain>


$$$$
BindingDB_50044423_mol_1

Vconf v2.0 Academic SN VC001-00000579
 34 37  0  0  0  0  0  0  0  0999 V2000
   35.6519  -12.2356    0.0000 C   0  0  0  0  0  0  0  0  0  0  0
   35.0778  -11.6437    0.0000 C   0  0  0  0  0  0  0  0  0  0  0
   34.4859  -12.2180    0.0000 C   0  0  0  0  0  0  0  0  0  0  0
   35.0602  -12.8097    0.0000 N   0  0  0  0  0  0  0  0  0  0  0
   35.0902  -10.8200    0.0000 C   0  0  0  0  0  0  0  0  0  0  0
   35.8112  -10.4190    0.0000 O   0  0  0  0  0  0  0  0  0  0  0
   34.3858  -10.3974    0.0000 N   0  0  0  0  0  0  0  0  0  0  0
   33.6648  -10.7984    0.0000 C   0  0  0  0  0  0  0  0  0  0  0
   32.9563  -10.3758    0.0000 C   0  0  0  0  0  0  0  0  0  0  0
   32.2353  -10.7769    0.0000 C   0  0  0  0  0  0  0  0  0  0  0
   32.2229  -11.6006    0.0000 C   0  0  0  0  0  0  0  0  0  0  0
   32.9314  -12.0233    0.0000 C   0  0  0  0  0  0  0  0  0  0  0
   33.6524  -11.6222    0.0000 C   0  0  0  0  0  0  0  0  0  0  0
   31.5309  -10.3542    0.0000 N   0  0  0  0  0  0  0  0  0  0  0
   30.8099  -10.7553    0.0000 C   0  0  0  0  0  0  0  0  0  0  0
   30.1055  -10.3327    0.0000 N   0  0  0  0  0  0  0  0  0  0  0
   29.3845  -10.7337    0.0000 C   0  0  0  0  0  0  0  0  0  0  0
   29.3721  -11.5574    0.0000 C   0  0  0  0  0  0  0  0  0  0  0
   30.0806  -11.9802    0.0000 C   0  0  0  0  0  0  0  0  0  0  0
   30.7975  -11.5790    0.0000 N   0  0  0  0  0  0  0  0  0  0  0
   28.6760  -10.3110    0.0000 N   0  0  0  0  0  0  0  0  0  0  0
   27.9592  -10.7121    0.0000 C   0  0  0  0  0  0  0  0  0  0  0
   27.2506  -10.2894    0.0000 C   0  0  0  0  0  0  0  0  0  0  0
   26.5296  -10.6905    0.0000 C   0  0  0  0  0  0  0  0  0  0  0
   26.5172  -11.5142    0.0000 C   0  0  0  0  0  0  0  0  0  0  0
   27.2257  -11.9369    0.0000 C   0  0  0  0  0  0  0  0  0  0  0
   27.9467  -11.5359    0.0000 C   0  0  0  0  0  0  0  0  0  0  0
   27.2631   -9.4657    0.0000 S   0  0  0  0  0  0  0  0  0  0  0
   28.0869   -9.4782    0.0000 O   0  0  0  0  0  0  0  0  0  0  0
   26.5595   -9.0381    0.0000 C   0  0  0  0  0  0  0  0  0  0  0
   25.8383   -9.4391    0.0000 C   0  0  0  0  0  0  0  0  0  0  0
   26.5741   -8.2132    0.0000 C   0  0  0  0  0  0  0  0  0  0  0
   28.6511  -11.9585    0.0000 Cl  0  0  0  0  0  0  0  0  0  0  0
   27.6691   -8.7459    0.0000 O   0  0  0  0  0  0  0  0  0  0  0
  1  2  1  0  0  0  0
  2  3  1  0  0  0  0
  3  4  1  0  0  0  0
  1  4  1  0  0  0  0
  5  6  2  0  0  0  0
  5  7  1  0  0  0  0
  2  5  1  0  0  0  0
  8  9  4  0  0  0  0
  9 10  4  0  0  0  0
 10 11  4  0  0  0  0
 11 12  4  0  0  0  0
 12 13  4  0  0  0  0
  8 13  4  0  0  0  0
 15 16  4  0  0  0  0
 16 17  4  0  0  0  0
 17 18  4  0  0  0  0
 18 19  4  0  0  0  0
 19 20  4  0  0  0  0
 15 20  4  0  0  0  0
 22 23  4  0  0  0  0
 23 24  4  0  0  0  0
 24 25  4  0  0  0  0
 25 26  4  0  0  0  0
 26 27  4  0  0  0  0
 22 27  4  0  0  0  0
 28 29  2  0  0  0  0
 30 31  1  0  0  0  0
 30 32  1  0  0  0  0
 28 30  1  0  0  0  0
 23 28  1  0  0  0  0
 21 22  1  0  0  0  0
 17 21  1  0  0  0  0
 18 33  1  0  0  0  0
 14 15  1  0  0  0  0
 10 14  1  0  0  0  0
  7  8  1  0  0  0  0
 28 34  2  0  0  0  0
M  END
> <From>
www.bindingDB.org

> <BindingDB Reactant_set_id>
50266094

> <Ligand InChI>
InChI=1S/C23H25ClN6O3S/c1-14(2)34(32,33)20-9-4-3-8-19(20)29-21-18(24)13-26-23(30-21)28-17-7-5-6-16(10-17)27-22(31)15-11-25-12-15/h3-10,13-15,25H,11-12H2,1-2H3,(H,27,31)(H2,26,28,29,30)

> <Ligand InChI Key>
JHGVPFVBTWQAIJ-UHFFFAOYSA-N

> <BindingDB MonomerID>
50044423

> <BindingDB Ligand Name>
CHEMBL3352867

> <Target Name Assigned by Curator or DataSource>
ALK tyrosine kinase receptor

> <Target Source Organism According to Curator or DataSource>
Homo sapiens

> <Ki (nM)>


> <IC50 (nM)>
 21

> <Kd (nM)>


> <EC50 (nM)>


> <kon (M-1-s-1)>


> <koff (s-1)>


> <pH>


> <Temp C>


> <Curation/DataSource>
ChEMBL

> <Article DOI>
10.1021/jm5005144

> <PMID>
24785465

> <PubChem AID>


> <Patent Number>


> <Authors>
Song, Z; Yang, Y; Liu, Z; Peng, X; Guo, J; Yang, X; Wu, K; Ai, J; Ding, J; Geng, M; Zhang, A

> <Institution>
Chinese Academy of Sciences

> <Link to Ligand in BindingDB>
http://www.bindingdb.org/bind/chemsearch/marvin/MolStructure.jsp?monomerid=50044423

> <Link to Ligand-Target Pair in BindingDB>
http://www.bindingdb.org/jsp/dbsearch/PrimarySearch_ki.jsp?energyterm=kJ/mole&tag=pol&polymerid=5809&target=ALK+tyrosine+kinase+receptor&column=ki&startPg=0&Increment=50&submit=Search

> <Link to Ligand-Target Pair in BindingDB>
http://www.bindingdb.org/jsp/dbsearch/PrimarySearch_ki.jsp?energyterm=kJ/mole&tag=r21&monomerid=50044423&enzyme=ALK+tyrosine+kinase+receptor&column=ki&startPg=0&Increment=50&submit=Search

> <Ligand HET ID in PDB>


> <PDB ID(s) for Ligand-Target Complex>


> <PubChem CID>
118722221

> <PubChem SID>
313068204

> <ChEBI ID of Ligand>


> <ChEMBL ID of Ligand>
CHEMBL3352867

> <DrugBank ID of Ligand>


> <IUPHAR_GRAC ID of Ligand>


> <KEGG ID of Ligand>


> <ZINC ID of Ligand>


> <Number of Protein Chains in Target (>1 implies a multichain complex)>
1

> <BindingDB Target Chain Sequence>
MGAIGLLWLLPLLLSTAAVGSGMGTGQRAGSPAAGPPLQPREPLSYSRLQRKSLAVDFVVPSLFRVYARDLLLPPSSSELKAGRPEARGSLALDCAPLLRLLGPAPGVSWTAGSPAPAEARTLSRVLKGGSVRKLRRAKQLVLELGEEAILEGCVGPPGEAAVGLLQFNLSELFSWWIRQGEGRLRIRLMPEKKASEVGREGRLSAAIRASQPRLLFQIFGTGHSSLESPTNMPSPSPDYFTWNLTWIMKDSFPFLSHRSRYGLECSFDFPCELEYSPPLHDLRNQSWSWRRIPSEEASQMDLLDGPGAERSKEMPRGSFLLLNTSADSKHTILSPWMRSSSEHCTLAVSVHRHLQPSGRYIAQLLPHNEAAREILLMPTPGKHGWTVLQGRIGRPDNPFRVALEYISSGNRSLSAVDFFALKNCSEGTSPGSKMALQSSFTCWNGTVLQLGQACDFHQDCAQGEDESQMCRKLPVGFYCNFEDGFCGWTQGTLSPHTPQWQVRTLKDARFQDHQDHALLLSTTDVPASESATVTSATFPAPIKSSPCELRMSWLIRGVLRGNVSLVLVENKTGKEQGRMVWHVAAYEGLSLWQWMVLPLLDVSDRFWLQMVAWWGQGSRAIVAFDNISISLDCYLTISGEDKILQNTAPKSRNLFERNPNKELKPGENSPRQTPIFDPTVHWLFTTCGASGPHGPTQAQCNNAYQNSNLSVEVGSEGPLKGIQIWKVPATDTYSISGYGAAGGKGGKNTMMRSHGVSVLGIFNLEKDDMLYILVGQQGEDACPSTNQLIQKVCIGENNVIEEEIRVNRSVHEWAGGGGGGGGATYVFKMKDGVPVPLIIAAGGGGRAYGAKTDTFHPERLENNSSVLGLNGNSGAAGGGGGWNDNTSLLWAGKSLQEGATGGHSCPQAMKKWGWETRGGFGGGGGGCSSGGGGGGYIGGNAASNNDPEMDGEDGVSFISPLGILYTPALKVMEGHGEVNIKHYLNCSHCEVDECHMDPESHKVICFCDHGTVLAEDGVSCIVSPTPEPHLPLSLILSVVTSALVAALVLAFSGIMIVYRRKHQELQAMQMELQSPEYKLSKLRTSTIMTDYNPNYCFAGKTSSISDLKEVPRKNITLIRGLGHGAFGEVYEGQVSGMPNDPSPLQVAVKTLPEVCSEQDELDFLMEALIISKFNHQNIVRCIGVSLQSLPRFILLELMAGGDLKSFLRETRPRPSQPSSLAMLDLLHVARDIACGCQYLEENHFIHRDIAARNCLLTCPGPGRVAKIGDFGMARDIYRASYYRKGGCAMLPVKWMPPEAFMEGIFTSKTDTWSFGVLLWEIFSLGYMPYPSKSNQEVLEFVTSGGRMDPPKNCPGPVYRIMTQCWQHQPEDRPNFAIILERIEYCTQDPDVINTALPIEYGPLVEEEEKVPVRPKDPEGVPPLLVSQQAKREEERSPAAPPPLPTTSSGKAAKKPTAAEISVRVPRGPAVEGGHVNMAFSQSNPPSELHKVHGSRNKPTSLWNPTYGSWFTEKPTKKNNPIAKKEPHDRGNLGLEGSCTVPPNVATGRLPGASLLLEPSSLTANMKEVPLFRLRHFPCGNVNYGYQQQGLPLEAATAPGAGHYEDTILKSKNSMNQPGP

> <PDB ID(s) of Target Chain>
2XB7,2XBA,3AOX,5FTO,5FTQ,6E0R,6EBW,6EDL,6MX8

> <UniProt (SwissProt) Recommended Name of Target Chain>
ALK tyrosine kinase receptor

> <UniProt (SwissProt) Entry Name of Target Chain>
ALK_HUMAN

> <UniProt (SwissProt) Primary ID of Target Chain>
Q9UM73

> <UniProt (SwissProt) Secondary ID(s) of Target Chain>
Q4ZFX9,Q53QQ6,Q53RZ4,Q59FI3,Q9Y4K6

> <UniProt (SwissProt) Alternative ID(s) of Target Chain>


> <UniProt (TrEMBL) Submitted Name of Target Chain>


> <UniProt (TrEMBL) Entry Name of Target Chain>


> <UniProt (TrEMBL) Primary ID of Target Chain>


> <UniProt (TrEMBL) Secondary ID(s) of Target Chain>


> <UniProt (TrEMBL) Alternative ID(s) of Target Chain>


$$$$
BindingDB_50044428_mol_1

Vconf v2.0 Academic SN VC001-00000579
 20 23  0  0  0  0  0  0  0  0999 V2000
    5.3107   -4.3796    0.0000 C   0  0  1  0  0  0  0  0  0  0  0
    5.5234   -5.1786    0.0000 N   0  0  0  0  0  0  0  0  0  0  0
    5.3107   -6.2304    0.0000 C   0  0  1  0  0  0  0  0  0  0  0
    6.1097   -4.5578    0.0000 C   0  0  0  0  0  0  0  0  0  0  0
    4.6613   -4.8854    0.0000 C   0  0  0  0  0  0  0  0  0  0  0
    6.4717   -5.2993    0.0000 C   0  0  0  0  0  0  0  0  0  0  0
    4.6613   -5.7245    0.0000 C   0  0  0  0  0  0  0  0  0  0  0
    9.1271   -4.1095    0.0000 C   0  0  0  0  0  0  0  0  0  0  0
    6.1097   -6.0407    0.0000 C   0  0  0  0  0  0  0  0  0  0  0
    6.5694   -3.8796    0.0000 C   0  0  0  0  0  0  0  0  0  0  0
    8.5753   -4.7303    0.0000 N   0  0  0  0  0  0  0  0  0  0  0
    9.9375   -4.2819    0.0000 S   0  0  0  0  0  0  0  0  0  0  0
    7.2936   -5.3624    0.0000 C   0  0  0  0  0  0  0  0  0  0  0
    7.7477   -4.6785    0.0000 C   0  0  0  0  0  0  0  0  0  0  0
    5.1096   -3.5750    0.0000 C   0  0  0  0  0  0  0  0  0  0  0
    7.3856   -3.9313    0.0000 C   0  0  0  0  0  0  0  0  0  0  0
    3.9371   -4.4716    0.0000 C   0  0  0  0  0  0  0  0  0  0  0
    3.9371   -6.1269    0.0000 C   0  0  0  0  0  0  0  0  0  0  0
    3.2301   -4.8969    0.0000 C   0  0  0  0  0  0  0  0  0  0  0
    3.2301   -5.7245    0.0000 C   0  0  0  0  0  0  0  0  0  0  0
  1  2  1  1  0  0  0
  3  2  1  1  0  0  0
  4  1  1  0  0  0  0
  5  1  1  0  0  0  0
  6  4  4  0  0  0  0
  7  5  4  0  0  0  0
  8 11  2  0  0  0  0
  9  6  1  0  0  0  0
 10  4  4  0  0  0  0
 11 14  1  0  0  0  0
 12  8  2  0  0  0  0
 13  6  4  0  0  0  0
 14 16  4  0  0  0  0
 15  1  1  0  0  0  0
 16 10  4  0  0  0  0
 17  5  4  0  0  0  0
 18  7  4  0  0  0  0
 19 17  4  0  0  0  0
 20 19  4  0  0  0  0
  7  3  1  0  0  0  0
  3  9  1  0  0  0  0
 18 20  4  0  0  0  0
 13 14  4  0  0  0  0
M  END
> <From>
www.bindingDB.org

> <BindingDB Reactant_set_id>
50266096

> <Ligand InChI>
InChI=1S/C29H36ClN7O4S/c1-19(2)42(40,41)25-12-6-5-11-24(25)34-27-23(30)16-31-29(35-27)33-22-10-7-9-21(15-22)32-28(39)20-17-37(18-20)26(38)13-8-14-36(3)4/h5-7,9-12,15-16,19-20H,8,13-14,17-18H2,1-4H3,(H,32,39)(H2,31,33,34,35)

> <Ligand InChI Key>
FYBQYJIHDABNSZ-UHFFFAOYSA-N

> <BindingDB MonomerID>
50044428

> <BindingDB Ligand Name>
CHEMBL3357452

> <Target Name Assigned by Curator or DataSource>
ALK tyrosine kinase receptor

> <Target Source Organism According to Curator or DataSource>
Homo sapiens

> <Ki (nM)>


> <IC50 (nM)>
 0.800000

> <Kd (nM)>


> <EC50 (nM)>


> <kon (M-1-s-1)>


> <koff (s-1)>


> <pH>


> <Temp C>


> <Curation/DataSource>
ChEMBL

> <Article DOI>
10.1021/jm5005144

> <PMID>
24785465

> <PubChem AID>


> <Patent Number>


> <Authors>
Song, Z; Yang, Y; Liu, Z; Peng, X; Guo, J; Yang, X; Wu, K; Ai, J; Ding, J; Geng, M; Zhang, A

> <Institution>
Chinese Academy of Sciences

> <Link to Ligand in BindingDB>
http://www.bindingdb.org/bind/chemsearch/marvin/MolStructure.jsp?monomerid=50044428

> <Link to Ligand-Target Pair in BindingDB>
http://www.bindingdb.org/jsp/dbsearch/PrimarySearch_ki.jsp?energyterm=kJ/mole&tag=pol&polymerid=5809&target=ALK+tyrosine+kinase+receptor&column=ki&startPg=0&Increment=50&submit=Search

> <Link to Ligand-Target Pair in BindingDB>
http://www.bindingdb.org/jsp/dbsearch/PrimarySearch_ki.jsp?energyterm=kJ/mole&tag=r21&monomerid=50044428&enzyme=ALK+tyrosine+kinase+receptor&column=ki&startPg=0&Increment=50&submit=Search

> <Ligand HET ID in PDB>


> <PDB ID(s) for Ligand-Target Complex>


> <PubChem CID>
118722222

> <PubChem SID>
103975680

> <ChEBI ID of Ligand>


> <ChEMBL ID of Ligand>
CHEMBL3357452

> <DrugBank ID of Ligand>


> <IUPHAR_GRAC ID of Ligand>


> <KEGG ID of Ligand>


> <ZINC ID of Ligand>
ZINC26567521

> <Number of Protein Chains in Target (>1 implies a multichain complex)>
1

> <BindingDB Target Chain Sequence>
MGAIGLLWLLPLLLSTAAVGSGMGTGQRAGSPAAGPPLQPREPLSYSRLQRKSLAVDFVVPSLFRVYARDLLLPPSSSELKAGRPEARGSLALDCAPLLRLLGPAPGVSWTAGSPAPAEARTLSRVLKGGSVRKLRRAKQLVLELGEEAILEGCVGPPGEAAVGLLQFNLSELFSWWIRQGEGRLRIRLMPEKKASEVGREGRLSAAIRASQPRLLFQIFGTGHSSLESPTNMPSPSPDYFTWNLTWIMKDSFPFLSHRSRYGLECSFDFPCELEYSPPLHDLRNQSWSWRRIPSEEASQMDLLDGPGAERSKEMPRGSFLLLNTSADSKHTILSPWMRSSSEHCTLAVSVHRHLQPSGRYIAQLLPHNEAAREILLMPTPGKHGWTVLQGRIGRPDNPFRVALEYISSGNRSLSAVDFFALKNCSEGTSPGSKMALQSSFTCWNGTVLQLGQACDFHQDCAQGEDESQMCRKLPVGFYCNFEDGFCGWTQGTLSPHTPQWQVRTLKDARFQDHQDHALLLSTTDVPASESATVTSATFPAPIKSSPCELRMSWLIRGVLRGNVSLVLVENKTGKEQGRMVWHVAAYEGLSLWQWMVLPLLDVSDRFWLQMVAWWGQGSRAIVAFDNISISLDCYLTISGEDKILQNTAPKSRNLFERNPNKELKPGENSPRQTPIFDPTVHWLFTTCGASGPHGPTQAQCNNAYQNSNLSVEVGSEGPLKGIQIWKVPATDTYSISGYGAAGGKGGKNTMMRSHGVSVLGIFNLEKDDMLYILVGQQGEDACPSTNQLIQKVCIGENNVIEEEIRVNRSVHEWAGGGGGGGGATYVFKMKDGVPVPLIIAAGGGGRAYGAKTDTFHPERLENNSSVLGLNGNSGAAGGGGGWNDNTSLLWAGKSLQEGATGGHSCPQAMKKWGWETRGGFGGGGGGCSSGGGGGGYIGGNAASNNDPEMDGEDGVSFISPLGILYTPALKVMEGHGEVNIKHYLNCSHCEVDECHMDPESHKVICFCDHGTVLAEDGVSCIVSPTPEPHLPLSLILSVVTSALVAALVLAFSGIMIVYRRKHQELQAMQMELQSPEYKLSKLRTSTIMTDYNPNYCFAGKTSSISDLKEVPRKNITLIRGLGHGAFGEVYEGQVSGMPNDPSPLQVAVKTLPEVCSEQDELDFLMEALIISKFNHQNIVRCIGVSLQSLPRFILLELMAGGDLKSFLRETRPRPSQPSSLAMLDLLHVARDIACGCQYLEENHFIHRDIAARNCLLTCPGPGRVAKIGDFGMARDIYRASYYRKGGCAMLPVKWMPPEAFMEGIFTSKTDTWSFGVLLWEIFSLGYMPYPSKSNQEVLEFVTSGGRMDPPKNCPGPVYRIMTQCWQHQPEDRPNFAIILERIEYCTQDPDVINTALPIEYGPLVEEEEKVPVRPKDPEGVPPLLVSQQAKREEERSPAAPPPLPTTSSGKAAKKPTAAEISVRVPRGPAVEGGHVNMAFSQSNPPSELHKVHGSRNKPTSLWNPTYGSWFTEKPTKKNNPIAKKEPHDRGNLGLEGSCTVPPNVATGRLPGASLLLEPSSLTANMKEVPLFRLRHFPCGNVNYGYQQQGLPLEAATAPGAGHYEDTILKSKNSMNQPGP

> <PDB ID(s) of Target Chain>
2XB7,2XBA,3AOX,5FTO,5FTQ,6E0R,6EBW,6EDL,6MX8

> <UniProt (SwissProt) Recommended Name of Target Chain>
ALK tyrosine kinase receptor

> <UniProt (SwissProt) Entry Name of Target Chain>
ALK_HUMAN

> <UniProt (SwissProt) Primary ID of Target Chain>
Q9UM73

> <UniProt (SwissProt) Secondary ID(s) of Target Chain>
Q4ZFX9,Q53QQ6,Q53RZ4,Q59FI3,Q9Y4K6

> <UniProt (SwissProt) Alternative ID(s) of Target Chain>


> <UniProt (TrEMBL) Submitted Name of Target Chain>


> <UniProt (TrEMBL) Entry Name of Target Chain>


> <UniProt (TrEMBL) Primary ID of Target Chain>


> <UniProt (TrEMBL) Secondary ID(s) of Target Chain>


> <UniProt (TrEMBL) Alternative ID(s) of Target Chain>


$$$$
BindingDB_50044434_mol_1

Vconf v2.0 Academic SN VC001-00000579
 31 34  0  0  0  0  0  0  0  0999 V2000
    1.4323   -4.3541    0.0000 C   0  0  0  0  0  0  0  0  0  0  0
    1.4265   -3.5291    0.0000 C   0  0  0  0  0  0  0  0  0  0  0
    0.7104   -4.7666    0.0000 N   0  0  0  0  0  0  0  0  0  0  0
    0.0058   -3.5291    0.0000 N   0  0  0  0  0  0  0  0  0  0  0
    0.0058   -4.3541    0.0000 C   0  0  0  0  0  0  0  0  0  0  0
    2.2171   -4.6061    0.0000 N   0  0  0  0  0  0  0  0  0  0  0
    0.7104   -3.1166    0.0000 C   0  0  0  0  0  0  0  0  0  0  0
    2.2057   -3.2713    0.0000 N   0  0  0  0  0  0  0  0  0  0  0
    2.7041   -3.9358    0.0000 C   0  0  0  0  0  0  0  0  0  0  0
    0.7104   -5.5916    0.0000 C   0  0  0  0  0  0  0  0  0  0  0
   -0.7161   -4.7666    0.0000 O   0  0  0  0  0  0  0  0  0  0  0
    0.7104   -2.2917    0.0000 O   0  0  0  0  0  0  0  0  0  0  0
    0.6933   -9.7165    0.0000 C   0  0  0  0  0  0  0  0  0  0  0
   -0.0172   -9.3040    0.0000 N   0  0  0  0  0  0  0  0  0  0  0
    3.5291   -3.9358    0.0000 C   0  0  0  0  0  0  0  0  0  0  0
    1.4093   -9.3040    0.0000 O   0  0  0  0  0  0  0  0  0  0  0
   -0.7161   -3.1166    0.0000 C   0  0  0  0  0  0  0  0  0  0  0
   -0.0172   -8.4790    0.0000 C   0  0  0  0  0  0  0  0  0  0  0
   -0.0114   -6.0041    0.0000 C   0  0  0  0  0  0  0  0  0  0  0
   -0.0114   -6.8290    0.0000 C   0  0  0  0  0  0  0  0  0  0  0
    0.7047   -8.0607    0.0000 C   0  0  0  0  0  0  0  0  0  0  0
   -0.7333   -8.0607    0.0000 C   0  0  0  0  0  0  0  0  0  0  0
    0.7047   -7.2415    0.0000 C   0  0  0  0  0  0  0  0  0  0  0
   -0.7333   -7.2358    0.0000 C   0  0  0  0  0  0  0  0  0  0  0
    0.6933  -10.5415    0.0000 C   0  0  0  0  0  0  0  0  0  0  0
    4.0104   -3.2655    0.0000 C   0  0  0  0  0  0  0  0  0  0  0
    4.0104   -4.5947    0.0000 C   0  0  0  0  0  0  0  0  0  0  0
   -0.7161   -2.2917    0.0000 C   0  0  0  0  0  0  0  0  0  0  0
   -1.4265   -1.8792    0.0000 C   0  0  0  0  0  0  0  0  0  0  0
    4.8010   -4.3369    0.0000 C   0  0  0  0  0  0  0  0  0  0  0
    4.7952   -3.5119    0.0000 C   0  0  0  0  0  0  0  0  0  0  0
  2  1  4  0  0  0  0
  3  1  4  0  0  0  0
  4  5  4  0  0  0  0
  5  3  4  0  0  0  0
  6  1  4  0  0  0  0
  7  2  4  0  0  0  0
  8  2  4  0  0  0  0
  9  6  4  0  0  0  0
 10  3  1  0  0  0  0
 11  5  2  0  0  0  0
 12  7  2  0  0  0  0
 13 14  1  0  0  0  0
 14 18  1  0  0  0  0
 15  9  1  0  0  0  0
 16 13  2  0  0  0  0
 17  4  1  0  0  0  0
 18 22  4  0  0  0  0
 19 10  1  0  0  0  0
 20 19  1  0  0  0  0
 21 23  4  0  0  0  0
 22 24  4  0  0  0  0
 23 20  4  0  0  0  0
 24 20  4  0  0  0  0
 25 13  1  0  0  0  0
 26 15  1  0  0  0  0
 27 15  1  0  0  0  0
 28 17  1  0  0  0  0
 29 28  1  0  0  0  0
 30 27  1  0  0  0  0
 31 26  1  0  0  0  0
  9  8  4  0  0  0  0
  7  4  4  0  0  0  0
 30 31  1  0  0  0  0
 21 18  4  0  0  0  0
M  STY  1   1 DAT
M  SAL   1  1   6
M  SDT   1 MRV_IMPLICIT_H                                        
M  SDD   1     0.0000    0.0000    DR    ALL  0       0  
M  SED   1 IMPL_H1
M  END
> <From>
www.bindingDB.org

> <BindingDB Reactant_set_id>
50266097

> <Ligand InChI>
InChI=1S/C25H29ClN6O4S/c1-17(2)37(34,35)22-9-4-3-8-21(22)30-24-20(26)15-27-25(31-24)29-19-7-5-6-18(14-19)28-23(33)16-32-10-12-36-13-11-32/h3-9,14-15,17H,10-13,16H2,1-2H3,(H,28,33)(H2,27,29,30,31)

> <Ligand InChI Key>
CXFLFTVIZRBMKT-UHFFFAOYSA-N

> <BindingDB MonomerID>
50044434

> <BindingDB Ligand Name>
CHEMBL3357453

> <Target Name Assigned by Curator or DataSource>
ALK tyrosine kinase receptor

> <Target Source Organism According to Curator or DataSource>
Homo sapiens

> <Ki (nM)>


> <IC50 (nM)>
 18

> <Kd (nM)>


> <EC50 (nM)>


> <kon (M-1-s-1)>


> <koff (s-1)>


> <pH>


> <Temp C>


> <Curation/DataSource>
ChEMBL

> <Article DOI>
10.1021/jm5005144

> <PMID>
24785465

> <PubChem AID>


> <Patent Number>


> <Authors>
Song, Z; Yang, Y; Liu, Z; Peng, X; Guo, J; Yang, X; Wu, K; Ai, J; Ding, J; Geng, M; Zhang, A

> <Institution>
Chinese Academy of Sciences

> <Link to Ligand in BindingDB>
http://www.bindingdb.org/bind/chemsearch/marvin/MolStructure.jsp?monomerid=50044434

> <Link to Ligand-Target Pair in BindingDB>
http://www.bindingdb.org/jsp/dbsearch/PrimarySearch_ki.jsp?energyterm=kJ/mole&tag=pol&polymerid=5809&target=ALK+tyrosine+kinase+receptor&column=ki&startPg=0&Increment=50&submit=Search

> <Link to Ligand-Target Pair in BindingDB>
http://www.bindingdb.org/jsp/dbsearch/PrimarySearch_ki.jsp?energyterm=kJ/mole&tag=r21&monomerid=50044434&enzyme=ALK+tyrosine+kinase+receptor&column=ki&startPg=0&Increment=50&submit=Search

> <Ligand HET ID in PDB>


> <PDB ID(s) for Ligand-Target Complex>


> <PubChem CID>
118722223

> <PubChem SID>
103975686

> <ChEBI ID of Ligand>


> <ChEMBL ID of Ligand>
CHEMBL3357453

> <DrugBank ID of Ligand>


> <IUPHAR_GRAC ID of Ligand>


> <KEGG ID of Ligand>


> <ZINC ID of Ligand>
ZINC00833555

> <Number of Protein Chains in Target (>1 implies a multichain complex)>
1

> <BindingDB Target Chain Sequence>
MGAIGLLWLLPLLLSTAAVGSGMGTGQRAGSPAAGPPLQPREPLSYSRLQRKSLAVDFVVPSLFRVYARDLLLPPSSSELKAGRPEARGSLALDCAPLLRLLGPAPGVSWTAGSPAPAEARTLSRVLKGGSVRKLRRAKQLVLELGEEAILEGCVGPPGEAAVGLLQFNLSELFSWWIRQGEGRLRIRLMPEKKASEVGREGRLSAAIRASQPRLLFQIFGTGHSSLESPTNMPSPSPDYFTWNLTWIMKDSFPFLSHRSRYGLECSFDFPCELEYSPPLHDLRNQSWSWRRIPSEEASQMDLLDGPGAERSKEMPRGSFLLLNTSADSKHTILSPWMRSSSEHCTLAVSVHRHLQPSGRYIAQLLPHNEAAREILLMPTPGKHGWTVLQGRIGRPDNPFRVALEYISSGNRSLSAVDFFALKNCSEGTSPGSKMALQSSFTCWNGTVLQLGQACDFHQDCAQGEDESQMCRKLPVGFYCNFEDGFCGWTQGTLSPHTPQWQVRTLKDARFQDHQDHALLLSTTDVPASESATVTSATFPAPIKSSPCELRMSWLIRGVLRGNVSLVLVENKTGKEQGRMVWHVAAYEGLSLWQWMVLPLLDVSDRFWLQMVAWWGQGSRAIVAFDNISISLDCYLTISGEDKILQNTAPKSRNLFERNPNKELKPGENSPRQTPIFDPTVHWLFTTCGASGPHGPTQAQCNNAYQNSNLSVEVGSEGPLKGIQIWKVPATDTYSISGYGAAGGKGGKNTMMRSHGVSVLGIFNLEKDDMLYILVGQQGEDACPSTNQLIQKVCIGENNVIEEEIRVNRSVHEWAGGGGGGGGATYVFKMKDGVPVPLIIAAGGGGRAYGAKTDTFHPERLENNSSVLGLNGNSGAAGGGGGWNDNTSLLWAGKSLQEGATGGHSCPQAMKKWGWETRGGFGGGGGGCSSGGGGGGYIGGNAASNNDPEMDGEDGVSFISPLGILYTPALKVMEGHGEVNIKHYLNCSHCEVDECHMDPESHKVICFCDHGTVLAEDGVSCIVSPTPEPHLPLSLILSVVTSALVAALVLAFSGIMIVYRRKHQELQAMQMELQSPEYKLSKLRTSTIMTDYNPNYCFAGKTSSISDLKEVPRKNITLIRGLGHGAFGEVYEGQVSGMPNDPSPLQVAVKTLPEVCSEQDELDFLMEALIISKFNHQNIVRCIGVSLQSLPRFILLELMAGGDLKSFLRETRPRPSQPSSLAMLDLLHVARDIACGCQYLEENHFIHRDIAARNCLLTCPGPGRVAKIGDFGMARDIYRASYYRKGGCAMLPVKWMPPEAFMEGIFTSKTDTWSFGVLLWEIFSLGYMPYPSKSNQEVLEFVTSGGRMDPPKNCPGPVYRIMTQCWQHQPEDRPNFAIILERIEYCTQDPDVINTALPIEYGPLVEEEEKVPVRPKDPEGVPPLLVSQQAKREEERSPAAPPPLPTTSSGKAAKKPTAAEISVRVPRGPAVEGGHVNMAFSQSNPPSELHKVHGSRNKPTSLWNPTYGSWFTEKPTKKNNPIAKKEPHDRGNLGLEGSCTVPPNVATGRLPGASLLLEPSSLTANMKEVPLFRLRHFPCGNVNYGYQQQGLPLEAATAPGAGHYEDTILKSKNSMNQPGP

> <PDB ID(s) of Target Chain>
2XB7,2XBA,3AOX,5FTO,5FTQ,6E0R,6EBW,6EDL,6MX8

> <UniProt (SwissProt) Recommended Name of Target Chain>
ALK tyrosine kinase receptor

> <UniProt (SwissProt) Entry Name of Target Chain>
ALK_HUMAN

> <UniProt (SwissProt) Primary ID of Target Chain>
Q9UM73

> <UniProt (SwissProt) Secondary ID(s) of Target Chain>
Q4ZFX9,Q53QQ6,Q53RZ4,Q59FI3,Q9Y4K6

> <UniProt (SwissProt) Alternative ID(s) of Target Chain>


> <UniProt (TrEMBL) Submitted Name of Target Chain>


> <UniProt (TrEMBL) Entry Name of Target Chain>


> <UniProt (TrEMBL) Primary ID of Target Chain>


> <UniProt (TrEMBL) Secondary ID(s) of Target Chain>


> <UniProt (TrEMBL) Alternative ID(s) of Target Chain>


$$$$
BindingDB_50044459_mol_1

Vconf v2.0 Academic SN VC001-00000579
 39 42  0  0  0  0  0  0  0  0999 V2000
   34.9510  -14.8860    0.0000 C   0  0  0  0  0  0  0  0  0  0  0
   34.9635  -14.0622    0.0000 C   0  0  0  0  0  0  0  0  0  0  0
   35.6846  -13.6611    0.0000 O   0  0  0  0  0  0  0  0  0  0  0
   34.2591  -13.6395    0.0000 N   0  0  0  0  0  0  0  0  0  0  0
   33.5380  -14.0406    0.0000 C   0  0  0  0  0  0  0  0  0  0  0
   32.8295  -13.6179    0.0000 C   0  0  0  0  0  0  0  0  0  0  0
   32.1084  -14.0190    0.0000 C   0  0  0  0  0  0  0  0  0  0  0
   32.0959  -14.8428    0.0000 C   0  0  0  0  0  0  0  0  0  0  0
   32.8045  -15.2655    0.0000 C   0  0  0  0  0  0  0  0  0  0  0
   33.5255  -14.8644    0.0000 C   0  0  0  0  0  0  0  0  0  0  0
   31.4040  -13.5963    0.0000 N   0  0  0  0  0  0  0  0  0  0  0
   30.6829  -13.9974    0.0000 C   0  0  0  0  0  0  0  0  0  0  0
   29.9785  -13.5748    0.0000 N   0  0  0  0  0  0  0  0  0  0  0
   29.2575  -13.9758    0.0000 C   0  0  0  0  0  0  0  0  0  0  0
   29.2449  -14.7996    0.0000 C   0  0  0  0  0  0  0  0  0  0  0
   29.9536  -15.2223    0.0000 C   0  0  0  0  0  0  0  0  0  0  0
   30.6704  -14.8212    0.0000 N   0  0  0  0  0  0  0  0  0  0  0
   28.5489  -13.5531    0.0000 N   0  0  0  0  0  0  0  0  0  0  0
   27.8320  -13.9542    0.0000 C   0  0  0  0  0  0  0  0  0  0  0
   27.1234  -13.5315    0.0000 C   0  0  0  0  0  0  0  0  0  0  0
   26.4024  -13.9327    0.0000 C   0  0  0  0  0  0  0  0  0  0  0
   26.3899  -14.7564    0.0000 C   0  0  0  0  0  0  0  0  0  0  0
   27.0985  -15.1791    0.0000 C   0  0  0  0  0  0  0  0  0  0  0
   27.8195  -14.7780    0.0000 C   0  0  0  0  0  0  0  0  0  0  0
   27.1358  -12.7077    0.0000 S   0  0  0  0  0  0  0  0  0  0  0
   27.9596  -12.7202    0.0000 O   0  0  0  0  0  0  0  0  0  0  0
   26.4321  -12.2801    0.0000 C   0  0  0  0  0  0  0  0  0  0  0
   25.7110  -12.6811    0.0000 C   0  0  0  0  0  0  0  0  0  0  0
   26.4468  -11.4551    0.0000 C   0  0  0  0  0  0  0  0  0  0  0
   28.5239  -15.2007    0.0000 Cl  0  0  0  0  0  0  0  0  0  0  0
   27.5418  -11.9879    0.0000 O   0  0  0  0  0  0  0  0  0  0  0
   35.6582  -15.3086    0.0000 N   0  0  0  0  0  0  0  0  0  0  0
   35.6412  -16.1330    0.0000 C   0  0  0  0  0  0  0  0  0  0  0
   36.3442  -16.5556    0.0000 C   0  0  1  0  0  0  0  0  0  0  0
   37.0663  -16.1580    0.0000 O   0  0  0  0  0  0  0  0  0  0  0
   37.0807  -15.3333    0.0000 C   0  0  1  0  0  0  0  0  0  0  0
   36.3731  -14.9062    0.0000 C   0  0  0  0  0  0  0  0  0  0  0
   36.3287  -17.3794    0.0000 C   0  0  0  0  0  0  0  0  0  0  0
   37.8018  -14.9347    0.0000 C   0  0  0  0  0  0  0  0  0  0  0
  2  3  2  0  0  0  0
  2  4  1  0  0  0  0
  1  2  1  0  0  0  0
  5  6  4  0  0  0  0
  6  7  4  0  0  0  0
  7  8  4  0  0  0  0
  8  9  4  0  0  0  0
  9 10  4  0  0  0  0
  5 10  4  0  0  0  0
 12 13  4  0  0  0  0
 13 14  4  0  0  0  0
 14 15  4  0  0  0  0
 15 16  4  0  0  0  0
 16 17  4  0  0  0  0
 12 17  4  0  0  0  0
 19 20  4  0  0  0  0
 20 21  4  0  0  0  0
 21 22  4  0  0  0  0
 22 23  4  0  0  0  0
 23 24  4  0  0  0  0
 19 24  4  0  0  0  0
 25 26  2  0  0  0  0
 27 28  1  0  0  0  0
 27 29  1  0  0  0  0
 25 27  1  0  0  0  0
 20 25  1  0  0  0  0
 18 19  1  0  0  0  0
 14 18  1  0  0  0  0
 15 30  1  0  0  0  0
 11 12  1  0  0  0  0
  7 11  1  0  0  0  0
  4  5  1  0  0  0  0
 25 31  2  0  0  0  0
  1 32  1  0  0  0  0
 32 33  1  0  0  0  0
 32 37  1  0  0  0  0
 34 33  1  0  0  0  0
 34 35  1  0  0  0  0
 36 35  1  0  0  0  0
 36 37  1  0  0  0  0
 34 38  1  1  0  0  0
 36 39  1  1  0  0  0
M  END
> <From>
www.bindingDB.org

> <BindingDB Reactant_set_id>
50266098

> <Ligand InChI>
InChI=1S/C27H33ClN6O4S/c1-17(2)39(36,37)24-11-6-5-10-23(24)32-26-22(28)13-29-27(33-26)31-21-9-7-8-20(12-21)30-25(35)16-34-14-18(3)38-19(4)15-34/h5-13,17-19H,14-16H2,1-4H3,(H,30,35)(H2,29,31,32,33)/t18-,19+

> <Ligand InChI Key>
QGVMEYLFVOBUHE-KDURUIRLSA-N

> <BindingDB MonomerID>
50044459

> <BindingDB Ligand Name>
CHEMBL3357454

> <Target Name Assigned by Curator or DataSource>
ALK tyrosine kinase receptor

> <Target Source Organism According to Curator or DataSource>
Homo sapiens

> <Ki (nM)>


> <IC50 (nM)>
 26

> <Kd (nM)>


> <EC50 (nM)>


> <kon (M-1-s-1)>


> <koff (s-1)>


> <pH>


> <Temp C>


> <Curation/DataSource>
ChEMBL

> <Article DOI>
10.1021/jm5005144

> <PMID>
24785465

> <PubChem AID>


> <Patent Number>


> <Authors>
Song, Z; Yang, Y; Liu, Z; Peng, X; Guo, J; Yang, X; Wu, K; Ai, J; Ding, J; Geng, M; Zhang, A

> <Institution>
Chinese Academy of Sciences

> <Link to Ligand in BindingDB>
http://www.bindingdb.org/bind/chemsearch/marvin/MolStructure.jsp?monomerid=50044459

> <Link to Ligand-Target Pair in BindingDB>
http://www.bindingdb.org/jsp/dbsearch/PrimarySearch_ki.jsp?energyterm=kJ/mole&tag=pol&polymerid=5809&target=ALK+tyrosine+kinase+receptor&column=ki&startPg=0&Increment=50&submit=Search

> <Link to Ligand-Target Pair in BindingDB>
http://www.bindingdb.org/jsp/dbsearch/PrimarySearch_ki.jsp?energyterm=kJ/mole&tag=r21&monomerid=50044459&enzyme=ALK+tyrosine+kinase+receptor&column=ki&startPg=0&Increment=50&submit=Search

> <Ligand HET ID in PDB>


> <PDB ID(s) for Ligand-Target Complex>


> <PubChem CID>
118722224

> <PubChem SID>
313068205

> <ChEBI ID of Ligand>


> <ChEMBL ID of Ligand>
CHEMBL3357454

> <DrugBank ID of Ligand>


> <IUPHAR_GRAC ID of Ligand>


> <KEGG ID of Ligand>


> <ZINC ID of Ligand>


> <Number of Protein Chains in Target (>1 implies a multichain complex)>
1

> <BindingDB Target Chain Sequence>
MGAIGLLWLLPLLLSTAAVGSGMGTGQRAGSPAAGPPLQPREPLSYSRLQRKSLAVDFVVPSLFRVYARDLLLPPSSSELKAGRPEARGSLALDCAPLLRLLGPAPGVSWTAGSPAPAEARTLSRVLKGGSVRKLRRAKQLVLELGEEAILEGCVGPPGEAAVGLLQFNLSELFSWWIRQGEGRLRIRLMPEKKASEVGREGRLSAAIRASQPRLLFQIFGTGHSSLESPTNMPSPSPDYFTWNLTWIMKDSFPFLSHRSRYGLECSFDFPCELEYSPPLHDLRNQSWSWRRIPSEEASQMDLLDGPGAERSKEMPRGSFLLLNTSADSKHTILSPWMRSSSEHCTLAVSVHRHLQPSGRYIAQLLPHNEAAREILLMPTPGKHGWTVLQGRIGRPDNPFRVALEYISSGNRSLSAVDFFALKNCSEGTSPGSKMALQSSFTCWNGTVLQLGQACDFHQDCAQGEDESQMCRKLPVGFYCNFEDGFCGWTQGTLSPHTPQWQVRTLKDARFQDHQDHALLLSTTDVPASESATVTSATFPAPIKSSPCELRMSWLIRGVLRGNVSLVLVENKTGKEQGRMVWHVAAYEGLSLWQWMVLPLLDVSDRFWLQMVAWWGQGSRAIVAFDNISISLDCYLTISGEDKILQNTAPKSRNLFERNPNKELKPGENSPRQTPIFDPTVHWLFTTCGASGPHGPTQAQCNNAYQNSNLSVEVGSEGPLKGIQIWKVPATDTYSISGYGAAGGKGGKNTMMRSHGVSVLGIFNLEKDDMLYILVGQQGEDACPSTNQLIQKVCIGENNVIEEEIRVNRSVHEWAGGGGGGGGATYVFKMKDGVPVPLIIAAGGGGRAYGAKTDTFHPERLENNSSVLGLNGNSGAAGGGGGWNDNTSLLWAGKSLQEGATGGHSCPQAMKKWGWETRGGFGGGGGGCSSGGGGGGYIGGNAASNNDPEMDGEDGVSFISPLGILYTPALKVMEGHGEVNIKHYLNCSHCEVDECHMDPESHKVICFCDHGTVLAEDGVSCIVSPTPEPHLPLSLILSVVTSALVAALVLAFSGIMIVYRRKHQELQAMQMELQSPEYKLSKLRTSTIMTDYNPNYCFAGKTSSISDLKEVPRKNITLIRGLGHGAFGEVYEGQVSGMPNDPSPLQVAVKTLPEVCSEQDELDFLMEALIISKFNHQNIVRCIGVSLQSLPRFILLELMAGGDLKSFLRETRPRPSQPSSLAMLDLLHVARDIACGCQYLEENHFIHRDIAARNCLLTCPGPGRVAKIGDFGMARDIYRASYYRKGGCAMLPVKWMPPEAFMEGIFTSKTDTWSFGVLLWEIFSLGYMPYPSKSNQEVLEFVTSGGRMDPPKNCPGPVYRIMTQCWQHQPEDRPNFAIILERIEYCTQDPDVINTALPIEYGPLVEEEEKVPVRPKDPEGVPPLLVSQQAKREEERSPAAPPPLPTTSSGKAAKKPTAAEISVRVPRGPAVEGGHVNMAFSQSNPPSELHKVHGSRNKPTSLWNPTYGSWFTEKPTKKNNPIAKKEPHDRGNLGLEGSCTVPPNVATGRLPGASLLLEPSSLTANMKEVPLFRLRHFPCGNVNYGYQQQGLPLEAATAPGAGHYEDTILKSKNSMNQPGP

> <PDB ID(s) of Target Chain>
2XB7,2XBA,3AOX,5FTO,5FTQ,6E0R,6EBW,6EDL,6MX8

> <UniProt (SwissProt) Recommended Name of Target Chain>
ALK tyrosine kinase receptor

> <UniProt (SwissProt) Entry Name of Target Chain>
ALK_HUMAN

> <UniProt (SwissProt) Primary ID of Target Chain>
Q9UM73

> <UniProt (SwissProt) Secondary ID(s) of Target Chain>
Q4ZFX9,Q53QQ6,Q53RZ4,Q59FI3,Q9Y4K6

> <UniProt (SwissProt) Alternative ID(s) of Target Chain>


> <UniProt (TrEMBL) Submitted Name of Target Chain>


> <UniProt (TrEMBL) Entry Name of Target Chain>


> <UniProt (TrEMBL) Primary ID of Target Chain>


> <UniProt (TrEMBL) Secondary ID(s) of Target Chain>


> <UniProt (TrEMBL) Alternative ID(s) of Target Chain>


$$$$
BindingDB_50044460_mol_1

Vconf v2.0 Academic SN VC001-00000579
 37 40  0  0  0  0  0  0  0  0999 V2000
   10.7458  -21.0557    0.0000 C   0  0  0  0  0  0  0  0  0  0  0
   10.7583  -20.2320    0.0000 C   0  0  0  0  0  0  0  0  0  0  0
   11.4793  -19.8309    0.0000 O   0  0  0  0  0  0  0  0  0  0  0
   10.0539  -19.8094    0.0000 N   0  0  0  0  0  0  0  0  0  0  0
    9.3329  -20.2104    0.0000 C   0  0  0  0  0  0  0  0  0  0  0
    8.6243  -19.7878    0.0000 C   0  0  0  0  0  0  0  0  0  0  0
    7.9033  -20.1888    0.0000 C   0  0  0  0  0  0  0  0  0  0  0
    7.8908  -21.0126    0.0000 C   0  0  0  0  0  0  0  0  0  0  0
    8.5993  -21.4353    0.0000 C   0  0  0  0  0  0  0  0  0  0  0
    9.3204  -21.0342    0.0000 C   0  0  0  0  0  0  0  0  0  0  0
    7.1989  -19.7662    0.0000 N   0  0  0  0  0  0  0  0  0  0  0
    6.4779  -20.1673    0.0000 C   0  0  0  0  0  0  0  0  0  0  0
    5.7735  -19.7447    0.0000 N   0  0  0  0  0  0  0  0  0  0  0
    5.0525  -20.1457    0.0000 C   0  0  0  0  0  0  0  0  0  0  0
    5.0400  -20.9694    0.0000 C   0  0  0  0  0  0  0  0  0  0  0
    5.7486  -21.3922    0.0000 C   0  0  0  0  0  0  0  0  0  0  0
    6.4654  -20.9910    0.0000 N   0  0  0  0  0  0  0  0  0  0  0
    4.3440  -19.7230    0.0000 N   0  0  0  0  0  0  0  0  0  0  0
    3.6271  -20.1241    0.0000 C   0  0  0  0  0  0  0  0  0  0  0
    2.9186  -19.7014    0.0000 C   0  0  0  0  0  0  0  0  0  0  0
    2.1975  -20.1024    0.0000 C   0  0  0  0  0  0  0  0  0  0  0
    2.1850  -20.9262    0.0000 C   0  0  0  0  0  0  0  0  0  0  0
    2.8937  -21.3489    0.0000 C   0  0  0  0  0  0  0  0  0  0  0
    3.6147  -20.9479    0.0000 C   0  0  0  0  0  0  0  0  0  0  0
    2.9311  -18.8777    0.0000 S   0  0  0  0  0  0  0  0  0  0  0
    3.7548  -18.8902    0.0000 O   0  0  0  0  0  0  0  0  0  0  0
    2.2273  -18.4501    0.0000 C   0  0  0  0  0  0  0  0  0  0  0
    1.5063  -18.8510    0.0000 C   0  0  0  0  0  0  0  0  0  0  0
    2.2420  -17.6251    0.0000 C   0  0  0  0  0  0  0  0  0  0  0
    4.3191  -21.3705    0.0000 Cl  0  0  0  0  0  0  0  0  0  0  0
    3.3369  -18.1578    0.0000 O   0  0  0  0  0  0  0  0  0  0  0
   11.4530  -21.4785    0.0000 N   0  0  0  0  0  0  0  0  0  0  0
   11.4360  -22.3028    0.0000 C   0  0  0  0  0  0  0  0  0  0  0
   12.1390  -22.7253    0.0000 C   0  0  0  0  0  0  0  0  0  0  0
   12.8610  -22.3278    0.0000 N   0  0  0  0  0  0  0  0  0  0  0
   12.8755  -21.5032    0.0000 C   0  0  0  0  0  0  0  0  0  0  0
   12.1679  -21.0760    0.0000 C   0  0  0  0  0  0  0  0  0  0  0
  2  3  2  0  0  0  0
  2  4  1  0  0  0  0
  1  2  1  0  0  0  0
  5  6  4  0  0  0  0
  6  7  4  0  0  0  0
  7  8  4  0  0  0  0
  8  9  4  0  0  0  0
  9 10  4  0  0  0  0
  5 10  4  0  0  0  0
 12 13  4  0  0  0  0
 13 14  4  0  0  0  0
 14 15  4  0  0  0  0
 15 16  4  0  0  0  0
 16 17  4  0  0  0  0
 12 17  4  0  0  0  0
 19 20  4  0  0  0  0
 20 21  4  0  0  0  0
 21 22  4  0  0  0  0
 22 23  4  0  0  0  0
 23 24  4  0  0  0  0
 19 24  4  0  0  0  0
 25 26  2  0  0  0  0
 27 28  1  0  0  0  0
 27 29  1  0  0  0  0
 25 27  1  0  0  0  0
 20 25  1  0  0  0  0
 18 19  1  0  0  0  0
 14 18  1  0  0  0  0
 15 30  1  0  0  0  0
 11 12  1  0  0  0  0
  7 11  1  0  0  0  0
  4  5  1  0  0  0  0
 25 31  2  0  0  0  0
  1 32  1  0  0  0  0
 32 33  1  0  0  0  0
 32 37  1  0  0  0  0
 33 34  1  0  0  0  0
 34 35  1  0  0  0  0
 35 36  1  0  0  0  0
 36 37  1  0  0  0  0
M  END
> <From>
www.bindingDB.org

> <BindingDB Reactant_set_id>
50266099

> <Ligand InChI>
InChI=1S/C25H30ClN7O3S/c1-17(2)37(35,36)22-9-4-3-8-21(22)31-24-20(26)15-28-25(32-24)30-19-7-5-6-18(14-19)29-23(34)16-33-12-10-27-11-13-33/h3-9,14-15,17,27H,10-13,16H2,1-2H3,(H,29,34)(H2,28,30,31,32)

> <Ligand InChI Key>
VUPKYIDSZYTBHB-UHFFFAOYSA-N

> <BindingDB MonomerID>
50044460

> <BindingDB Ligand Name>
CHEMBL3357455

> <Target Name Assigned by Curator or DataSource>
ALK tyrosine kinase receptor

> <Target Source Organism According to Curator or DataSource>
Homo sapiens

> <Ki (nM)>


> <IC50 (nM)>
 2.5

> <Kd (nM)>


> <EC50 (nM)>


> <kon (M-1-s-1)>


> <koff (s-1)>


> <pH>


> <Temp C>


> <Curation/DataSource>
ChEMBL

> <Article DOI>
10.1021/jm5005144

> <PMID>
24785465

> <PubChem AID>


> <Patent Number>


> <Authors>
Song, Z; Yang, Y; Liu, Z; Peng, X; Guo, J; Yang, X; Wu, K; Ai, J; Ding, J; Geng, M; Zhang, A

> <Institution>
Chinese Academy of Sciences

> <Link to Ligand in BindingDB>
http://www.bindingdb.org/bind/chemsearch/marvin/MolStructure.jsp?monomerid=50044460

> <Link to Ligand-Target Pair in BindingDB>
http://www.bindingdb.org/jsp/dbsearch/PrimarySearch_ki.jsp?energyterm=kJ/mole&tag=pol&polymerid=5809&target=ALK+tyrosine+kinase+receptor&column=ki&startPg=0&Increment=50&submit=Search

> <Link to Ligand-Target Pair in BindingDB>
http://www.bindingdb.org/jsp/dbsearch/PrimarySearch_ki.jsp?energyterm=kJ/mole&tag=r21&monomerid=50044460&enzyme=ALK+tyrosine+kinase+receptor&column=ki&startPg=0&Increment=50&submit=Search

> <Ligand HET ID in PDB>


> <PDB ID(s) for Ligand-Target Complex>


> <PubChem CID>
118722225

> <PubChem SID>
313068206

> <ChEBI ID of Ligand>


> <ChEMBL ID of Ligand>
CHEMBL3357455

> <DrugBank ID of Ligand>


> <IUPHAR_GRAC ID of Ligand>


> <KEGG ID of Ligand>


> <ZINC ID of Ligand>


> <Number of Protein Chains in Target (>1 implies a multichain complex)>
1

> <BindingDB Target Chain Sequence>
MGAIGLLWLLPLLLSTAAVGSGMGTGQRAGSPAAGPPLQPREPLSYSRLQRKSLAVDFVVPSLFRVYARDLLLPPSSSELKAGRPEARGSLALDCAPLLRLLGPAPGVSWTAGSPAPAEARTLSRVLKGGSVRKLRRAKQLVLELGEEAILEGCVGPPGEAAVGLLQFNLSELFSWWIRQGEGRLRIRLMPEKKASEVGREGRLSAAIRASQPRLLFQIFGTGHSSLESPTNMPSPSPDYFTWNLTWIMKDSFPFLSHRSRYGLECSFDFPCELEYSPPLHDLRNQSWSWRRIPSEEASQMDLLDGPGAERSKEMPRGSFLLLNTSADSKHTILSPWMRSSSEHCTLAVSVHRHLQPSGRYIAQLLPHNEAAREILLMPTPGKHGWTVLQGRIGRPDNPFRVALEYISSGNRSLSAVDFFALKNCSEGTSPGSKMALQSSFTCWNGTVLQLGQACDFHQDCAQGEDESQMCRKLPVGFYCNFEDGFCGWTQGTLSPHTPQWQVRTLKDARFQDHQDHALLLSTTDVPASESATVTSATFPAPIKSSPCELRMSWLIRGVLRGNVSLVLVENKTGKEQGRMVWHVAAYEGLSLWQWMVLPLLDVSDRFWLQMVAWWGQGSRAIVAFDNISISLDCYLTISGEDKILQNTAPKSRNLFERNPNKELKPGENSPRQTPIFDPTVHWLFTTCGASGPHGPTQAQCNNAYQNSNLSVEVGSEGPLKGIQIWKVPATDTYSISGYGAAGGKGGKNTMMRSHGVSVLGIFNLEKDDMLYILVGQQGEDACPSTNQLIQKVCIGENNVIEEEIRVNRSVHEWAGGGGGGGGATYVFKMKDGVPVPLIIAAGGGGRAYGAKTDTFHPERLENNSSVLGLNGNSGAAGGGGGWNDNTSLLWAGKSLQEGATGGHSCPQAMKKWGWETRGGFGGGGGGCSSGGGGGGYIGGNAASNNDPEMDGEDGVSFISPLGILYTPALKVMEGHGEVNIKHYLNCSHCEVDECHMDPESHKVICFCDHGTVLAEDGVSCIVSPTPEPHLPLSLILSVVTSALVAALVLAFSGIMIVYRRKHQELQAMQMELQSPEYKLSKLRTSTIMTDYNPNYCFAGKTSSISDLKEVPRKNITLIRGLGHGAFGEVYEGQVSGMPNDPSPLQVAVKTLPEVCSEQDELDFLMEALIISKFNHQNIVRCIGVSLQSLPRFILLELMAGGDLKSFLRETRPRPSQPSSLAMLDLLHVARDIACGCQYLEENHFIHRDIAARNCLLTCPGPGRVAKIGDFGMARDIYRASYYRKGGCAMLPVKWMPPEAFMEGIFTSKTDTWSFGVLLWEIFSLGYMPYPSKSNQEVLEFVTSGGRMDPPKNCPGPVYRIMTQCWQHQPEDRPNFAIILERIEYCTQDPDVINTALPIEYGPLVEEEEKVPVRPKDPEGVPPLLVSQQAKREEERSPAAPPPLPTTSSGKAAKKPTAAEISVRVPRGPAVEGGHVNMAFSQSNPPSELHKVHGSRNKPTSLWNPTYGSWFTEKPTKKNNPIAKKEPHDRGNLGLEGSCTVPPNVATGRLPGASLLLEPSSLTANMKEVPLFRLRHFPCGNVNYGYQQQGLPLEAATAPGAGHYEDTILKSKNSMNQPGP

> <PDB ID(s) of Target Chain>
2XB7,2XBA,3AOX,5FTO,5FTQ,6E0R,6EBW,6EDL,6MX8

> <UniProt (SwissProt) Recommended Name of Target Chain>
ALK tyrosine kinase receptor

> <UniProt (SwissProt) Entry Name of Target Chain>
ALK_HUMAN

> <UniProt (SwissProt) Primary ID of Target Chain>
Q9UM73

> <UniProt (SwissProt) Secondary ID(s) of Target Chain>
Q4ZFX9,Q53QQ6,Q53RZ4,Q59FI3,Q9Y4K6

> <UniProt (SwissProt) Alternative ID(s) of Target Chain>


> <UniProt (TrEMBL) Submitted Name of Target Chain>


> <UniProt (TrEMBL) Entry Name of Target Chain>


> <UniProt (TrEMBL) Primary ID of Target Chain>


> <UniProt (TrEMBL) Secondary ID(s) of Target Chain>


> <UniProt (TrEMBL) Alternative ID(s) of Target Chain>


$$$$
BindingDB_50044461_mol_1

Vconf v2.0 Academic SN VC001-00000579
 38 41  0  0  0  0  0  0  0  0999 V2000
   23.5657  -20.7108    0.0000 C   0  0  0  0  0  0  0  0  0  0  0
   23.5782  -19.8870    0.0000 C   0  0  0  0  0  0  0  0  0  0  0
   24.2992  -19.4859    0.0000 O   0  0  0  0  0  0  0  0  0  0  0
   22.8738  -19.4644    0.0000 N   0  0  0  0  0  0  0  0  0  0  0
   22.1527  -19.8654    0.0000 C   0  0  0  0  0  0  0  0  0  0  0
   21.4442  -19.4427    0.0000 C   0  0  0  0  0  0  0  0  0  0  0
   20.7232  -19.8437    0.0000 C   0  0  0  0  0  0  0  0  0  0  0
   20.7107  -20.6675    0.0000 C   0  0  0  0  0  0  0  0  0  0  0
   21.4192  -21.0902    0.0000 C   0  0  0  0  0  0  0  0  0  0  0
   22.1402  -20.6892    0.0000 C   0  0  0  0  0  0  0  0  0  0  0
   20.0188  -19.4211    0.0000 N   0  0  0  0  0  0  0  0  0  0  0
   19.2977  -19.8222    0.0000 C   0  0  0  0  0  0  0  0  0  0  0
   18.5933  -19.3996    0.0000 N   0  0  0  0  0  0  0  0  0  0  0
   17.8723  -19.8006    0.0000 C   0  0  0  0  0  0  0  0  0  0  0
   17.8598  -20.6244    0.0000 C   0  0  0  0  0  0  0  0  0  0  0
   18.5684  -21.0471    0.0000 C   0  0  0  0  0  0  0  0  0  0  0
   19.2852  -20.6459    0.0000 N   0  0  0  0  0  0  0  0  0  0  0
   17.1638  -19.3779    0.0000 N   0  0  0  0  0  0  0  0  0  0  0
   16.4469  -19.7790    0.0000 C   0  0  0  0  0  0  0  0  0  0  0
   15.7383  -19.3564    0.0000 C   0  0  0  0  0  0  0  0  0  0  0
   15.0173  -19.7574    0.0000 C   0  0  0  0  0  0  0  0  0  0  0
   15.0048  -20.5812    0.0000 C   0  0  0  0  0  0  0  0  0  0  0
   15.7134  -21.0038    0.0000 C   0  0  0  0  0  0  0  0  0  0  0
   16.4344  -20.6028    0.0000 C   0  0  0  0  0  0  0  0  0  0  0
   15.7507  -18.5326    0.0000 S   0  0  0  0  0  0  0  0  0  0  0
   16.5745  -18.5450    0.0000 O   0  0  0  0  0  0  0  0  0  0  0
   15.0470  -18.1050    0.0000 C   0  0  0  0  0  0  0  0  0  0  0
   14.3260  -18.5059    0.0000 C   0  0  0  0  0  0  0  0  0  0  0
   15.0618  -17.2801    0.0000 C   0  0  0  0  0  0  0  0  0  0  0
   17.1388  -21.0254    0.0000 Cl  0  0  0  0  0  0  0  0  0  0  0
   16.1567  -17.8128    0.0000 O   0  0  0  0  0  0  0  0  0  0  0
   24.2729  -21.1334    0.0000 N   0  0  0  0  0  0  0  0  0  0  0
   24.2558  -21.9577    0.0000 C   0  0  0  0  0  0  0  0  0  0  0
   24.9588  -22.3803    0.0000 C   0  0  0  0  0  0  0  0  0  0  0
   25.6809  -21.9827    0.0000 N   0  0  0  0  0  0  0  0  0  0  0
   25.6953  -21.1581    0.0000 C   0  0  0  0  0  0  0  0  0  0  0
   24.9878  -20.7309    0.0000 C   0  0  0  0  0  0  0  0  0  0  0
   26.3865  -22.4081    0.0000 C   0  0  0  0  0  0  0  0  0  0  0
  2  3  2  0  0  0  0
  2  4  1  0  0  0  0
  1  2  1  0  0  0  0
  5  6  4  0  0  0  0
  6  7  4  0  0  0  0
  7  8  4  0  0  0  0
  8  9  4  0  0  0  0
  9 10  4  0  0  0  0
  5 10  4  0  0  0  0
 12 13  4  0  0  0  0
 13 14  4  0  0  0  0
 14 15  4  0  0  0  0
 15 16  4  0  0  0  0
 16 17  4  0  0  0  0
 12 17  4  0  0  0  0
 19 20  4  0  0  0  0
 20 21  4  0  0  0  0
 21 22  4  0  0  0  0
 22 23  4  0  0  0  0
 23 24  4  0  0  0  0
 19 24  4  0  0  0  0
 25 26  2  0  0  0  0
 27 28  1  0  0  0  0
 27 29  1  0  0  0  0
 25 27  1  0  0  0  0
 20 25  1  0  0  0  0
 18 19  1  0  0  0  0
 14 18  1  0  0  0  0
 15 30  1  0  0  0  0
 11 12  1  0  0  0  0
  7 11  1  0  0  0  0
  4  5  1  0  0  0  0
 25 31  2  0  0  0  0
  1 32  1  0  0  0  0
 32 33  1  0  0  0  0
 32 37  1  0  0  0  0
 33 34  1  0  0  0  0
 34 35  1  0  0  0  0
 35 36  1  0  0  0  0
 36 37  1  0  0  0  0
 35 38  1  0  0  0  0
M  END
> <From>
www.bindingDB.org

> <BindingDB Reactant_set_id>
50266100

> <Ligand InChI>
InChI=1S/C26H32ClN7O3S/c1-18(2)38(36,37)23-10-5-4-9-22(23)31-25-21(27)16-28-26(32-25)30-20-8-6-7-19(15-20)29-24(35)17-34-13-11-33(3)12-14-34/h4-10,15-16,18H,11-14,17H2,1-3H3,(H,29,35)(H2,28,30,31,32)

> <Ligand InChI Key>
CSMSPOIEMWPZLD-UHFFFAOYSA-N

> <BindingDB MonomerID>
50044461

> <BindingDB Ligand Name>
CHEMBL3357456

> <Target Name Assigned by Curator or DataSource>
ALK tyrosine kinase receptor

> <Target Source Organism According to Curator or DataSource>
Homo sapiens

> <Ki (nM)>


> <IC50 (nM)>
 1.7

> <Kd (nM)>


> <EC50 (nM)>


> <kon (M-1-s-1)>


> <koff (s-1)>


> <pH>


> <Temp C>


> <Curation/DataSource>
ChEMBL

> <Article DOI>
10.1021/jm5005144

> <PMID>
24785465

> <PubChem AID>


> <Patent Number>


> <Authors>
Song, Z; Yang, Y; Liu, Z; Peng, X; Guo, J; Yang, X; Wu, K; Ai, J; Ding, J; Geng, M; Zhang, A

> <Institution>
Chinese Academy of Sciences

> <Link to Ligand in BindingDB>
http://www.bindingdb.org/bind/chemsearch/marvin/MolStructure.jsp?monomerid=50044461

> <Link to Ligand-Target Pair in BindingDB>
http://www.bindingdb.org/jsp/dbsearch/PrimarySearch_ki.jsp?energyterm=kJ/mole&tag=pol&polymerid=5809&target=ALK+tyrosine+kinase+receptor&column=ki&startPg=0&Increment=50&submit=Search

> <Link to Ligand-Target Pair in BindingDB>
http://www.bindingdb.org/jsp/dbsearch/PrimarySearch_ki.jsp?energyterm=kJ/mole&tag=r21&monomerid=50044461&enzyme=ALK+tyrosine+kinase+receptor&column=ki&startPg=0&Increment=50&submit=Search

> <Ligand HET ID in PDB>


> <PDB ID(s) for Ligand-Target Complex>


> <PubChem CID>
118722226

> <PubChem SID>
313068207

> <ChEBI ID of Ligand>


> <ChEMBL ID of Ligand>
CHEMBL3357456

> <DrugBank ID of Ligand>


> <IUPHAR_GRAC ID of Ligand>


> <KEGG ID of Ligand>


> <ZINC ID of Ligand>


> <Number of Protein Chains in Target (>1 implies a multichain complex)>
1

> <BindingDB Target Chain Sequence>
MGAIGLLWLLPLLLSTAAVGSGMGTGQRAGSPAAGPPLQPREPLSYSRLQRKSLAVDFVVPSLFRVYARDLLLPPSSSELKAGRPEARGSLALDCAPLLRLLGPAPGVSWTAGSPAPAEARTLSRVLKGGSVRKLRRAKQLVLELGEEAILEGCVGPPGEAAVGLLQFNLSELFSWWIRQGEGRLRIRLMPEKKASEVGREGRLSAAIRASQPRLLFQIFGTGHSSLESPTNMPSPSPDYFTWNLTWIMKDSFPFLSHRSRYGLECSFDFPCELEYSPPLHDLRNQSWSWRRIPSEEASQMDLLDGPGAERSKEMPRGSFLLLNTSADSKHTILSPWMRSSSEHCTLAVSVHRHLQPSGRYIAQLLPHNEAAREILLMPTPGKHGWTVLQGRIGRPDNPFRVALEYISSGNRSLSAVDFFALKNCSEGTSPGSKMALQSSFTCWNGTVLQLGQACDFHQDCAQGEDESQMCRKLPVGFYCNFEDGFCGWTQGTLSPHTPQWQVRTLKDARFQDHQDHALLLSTTDVPASESATVTSATFPAPIKSSPCELRMSWLIRGVLRGNVSLVLVENKTGKEQGRMVWHVAAYEGLSLWQWMVLPLLDVSDRFWLQMVAWWGQGSRAIVAFDNISISLDCYLTISGEDKILQNTAPKSRNLFERNPNKELKPGENSPRQTPIFDPTVHWLFTTCGASGPHGPTQAQCNNAYQNSNLSVEVGSEGPLKGIQIWKVPATDTYSISGYGAAGGKGGKNTMMRSHGVSVLGIFNLEKDDMLYILVGQQGEDACPSTNQLIQKVCIGENNVIEEEIRVNRSVHEWAGGGGGGGGATYVFKMKDGVPVPLIIAAGGGGRAYGAKTDTFHPERLENNSSVLGLNGNSGAAGGGGGWNDNTSLLWAGKSLQEGATGGHSCPQAMKKWGWETRGGFGGGGGGCSSGGGGGGYIGGNAASNNDPEMDGEDGVSFISPLGILYTPALKVMEGHGEVNIKHYLNCSHCEVDECHMDPESHKVICFCDHGTVLAEDGVSCIVSPTPEPHLPLSLILSVVTSALVAALVLAFSGIMIVYRRKHQELQAMQMELQSPEYKLSKLRTSTIMTDYNPNYCFAGKTSSISDLKEVPRKNITLIRGLGHGAFGEVYEGQVSGMPNDPSPLQVAVKTLPEVCSEQDELDFLMEALIISKFNHQNIVRCIGVSLQSLPRFILLELMAGGDLKSFLRETRPRPSQPSSLAMLDLLHVARDIACGCQYLEENHFIHRDIAARNCLLTCPGPGRVAKIGDFGMARDIYRASYYRKGGCAMLPVKWMPPEAFMEGIFTSKTDTWSFGVLLWEIFSLGYMPYPSKSNQEVLEFVTSGGRMDPPKNCPGPVYRIMTQCWQHQPEDRPNFAIILERIEYCTQDPDVINTALPIEYGPLVEEEEKVPVRPKDPEGVPPLLVSQQAKREEERSPAAPPPLPTTSSGKAAKKPTAAEISVRVPRGPAVEGGHVNMAFSQSNPPSELHKVHGSRNKPTSLWNPTYGSWFTEKPTKKNNPIAKKEPHDRGNLGLEGSCTVPPNVATGRLPGASLLLEPSSLTANMKEVPLFRLRHFPCGNVNYGYQQQGLPLEAATAPGAGHYEDTILKSKNSMNQPGP

> <PDB ID(s) of Target Chain>
2XB7,2XBA,3AOX,5FTO,5FTQ,6E0R,6EBW,6EDL,6MX8

> <UniProt (SwissProt) Recommended Name of Target Chain>
ALK tyrosine kinase receptor

> <UniProt (SwissProt) Entry Name of Target Chain>
ALK_HUMAN

> <UniProt (SwissProt) Primary ID of Target Chain>
Q9UM73

> <UniProt (SwissProt) Secondary ID(s) of Target Chain>
Q4ZFX9,Q53QQ6,Q53RZ4,Q59FI3,Q9Y4K6

> <UniProt (SwissProt) Alternative ID(s) of Target Chain>


> <UniProt (TrEMBL) Submitted Name of Target Chain>


> <UniProt (TrEMBL) Entry Name of Target Chain>


> <UniProt (TrEMBL) Primary ID of Target Chain>


> <UniProt (TrEMBL) Secondary ID(s) of Target Chain>


> <UniProt (TrEMBL) Alternative ID(s) of Target Chain>


$$$$
BindingDB_50044462_mol_1

Vconf v2.0 Academic SN VC001-00000579
 41 45  0  0  0  0  0  0  0  0999 V2000
   34.0470  -20.3654    0.0000 C   0  0  0  0  0  0  0  0  0  0  0
   34.0595  -19.5416    0.0000 C   0  0  0  0  0  0  0  0  0  0  0
   34.7805  -19.1406    0.0000 O   0  0  0  0  0  0  0  0  0  0  0
   33.3551  -19.1190    0.0000 N   0  0  0  0  0  0  0  0  0  0  0
   32.6340  -19.5200    0.0000 C   0  0  0  0  0  0  0  0  0  0  0
   31.9255  -19.0973    0.0000 C   0  0  0  0  0  0  0  0  0  0  0
   31.2045  -19.4985    0.0000 C   0  0  0  0  0  0  0  0  0  0  0
   31.1920  -20.3222    0.0000 C   0  0  0  0  0  0  0  0  0  0  0
   31.9005  -20.7448    0.0000 C   0  0  0  0  0  0  0  0  0  0  0
   32.6215  -20.3438    0.0000 C   0  0  0  0  0  0  0  0  0  0  0
   30.5001  -19.0757    0.0000 N   0  0  0  0  0  0  0  0  0  0  0
   29.7790  -19.4769    0.0000 C   0  0  0  0  0  0  0  0  0  0  0
   29.0746  -19.0542    0.0000 N   0  0  0  0  0  0  0  0  0  0  0
   28.3536  -19.4553    0.0000 C   0  0  0  0  0  0  0  0  0  0  0
   28.3411  -20.2791    0.0000 C   0  0  0  0  0  0  0  0  0  0  0
   29.0496  -20.7017    0.0000 C   0  0  0  0  0  0  0  0  0  0  0
   29.7665  -20.3006    0.0000 N   0  0  0  0  0  0  0  0  0  0  0
   27.6451  -19.0326    0.0000 N   0  0  0  0  0  0  0  0  0  0  0
   26.9282  -19.4337    0.0000 C   0  0  0  0  0  0  0  0  0  0  0
   26.2196  -19.0110    0.0000 C   0  0  0  0  0  0  0  0  0  0  0
   25.4986  -19.4121    0.0000 C   0  0  0  0  0  0  0  0  0  0  0
   25.4861  -20.2358    0.0000 C   0  0  0  0  0  0  0  0  0  0  0
   26.1946  -20.6585    0.0000 C   0  0  0  0  0  0  0  0  0  0  0
   26.9157  -20.2575    0.0000 C   0  0  0  0  0  0  0  0  0  0  0
   26.2320  -18.1872    0.0000 S   0  0  0  0  0  0  0  0  0  0  0
   27.0558  -18.1997    0.0000 O   0  0  0  0  0  0  0  0  0  0  0
   25.5283  -17.7597    0.0000 C   0  0  0  0  0  0  0  0  0  0  0
   24.8073  -18.1606    0.0000 C   0  0  0  0  0  0  0  0  0  0  0
   25.5431  -16.9347    0.0000 C   0  0  0  0  0  0  0  0  0  0  0
   27.6201  -20.6801    0.0000 Cl  0  0  0  0  0  0  0  0  0  0  0
   26.6380  -17.4674    0.0000 O   0  0  0  0  0  0  0  0  0  0  0
   34.7542  -20.7881    0.0000 N   0  0  0  0  0  0  0  0  0  0  0
   34.7371  -21.6125    0.0000 C   0  0  0  0  0  0  0  0  0  0  0
   35.4401  -22.0350    0.0000 C   0  0  0  0  0  0  0  0  0  0  0
   36.1622  -21.6375    0.0000 N   0  0  0  0  0  0  0  0  0  0  0
   36.1766  -20.8127    0.0000 C   0  0  0  0  0  0  0  0  0  0  0
   35.4691  -20.3855    0.0000 C   0  0  0  0  0  0  0  0  0  0  0
   36.8678  -22.0628    0.0000 C   0  0  0  0  0  0  0  0  0  0  0
   37.0630  -22.8612    0.0000 C   0  0  0  0  0  0  0  0  0  0  0
   37.8626  -22.6631    0.0000 O   0  0  0  0  0  0  0  0  0  0  0
   37.6645  -21.8634    0.0000 C   0  0  0  0  0  0  0  0  0  0  0
  2  3  2  0  0  0  0
  2  4  1  0  0  0  0
  1  2  1  0  0  0  0
  5  6  4  0  0  0  0
  6  7  4  0  0  0  0
  7  8  4  0  0  0  0
  8  9  4  0  0  0  0
  9 10  4  0  0  0  0
  5 10  4  0  0  0  0
 12 13  4  0  0  0  0
 13 14  4  0  0  0  0
 14 15  4  0  0  0  0
 15 16  4  0  0  0  0
 16 17  4  0  0  0  0
 12 17  4  0  0  0  0
 19 20  4  0  0  0  0
 20 21  4  0  0  0  0
 21 22  4  0  0  0  0
 22 23  4  0  0  0  0
 23 24  4  0  0  0  0
 19 24  4  0  0  0  0
 25 26  2  0  0  0  0
 27 28  1  0  0  0  0
 27 29  1  0  0  0  0
 25 27  1  0  0  0  0
 20 25  1  0  0  0  0
 18 19  1  0  0  0  0
 14 18  1  0  0  0  0
 15 30  1  0  0  0  0
 11 12  1  0  0  0  0
  7 11  1  0  0  0  0
  4  5  1  0  0  0  0
 25 31  2  0  0  0  0
  1 32  1  0  0  0  0
 32 33  1  0  0  0  0
 32 37  1  0  0  0  0
 33 34  1  0  0  0  0
 34 35  1  0  0  0  0
 35 36  1  0  0  0  0
 36 37  1  0  0  0  0
 35 38  1  0  0  0  0
 38 39  1  0  0  0  0
 39 40  1  0  0  0  0
 40 41  1  0  0  0  0
 41 38  1  0  0  0  0
M  END
> <From>
www.bindingDB.org

> <BindingDB Reactant_set_id>
50266101

> <Ligand InChI>
InChI=1S/C28H34ClN7O4S/c1-19(2)41(38,39)25-9-4-3-8-24(25)33-27-23(29)15-30-28(34-27)32-21-7-5-6-20(14-21)31-26(37)16-35-10-12-36(13-11-35)22-17-40-18-22/h3-9,14-15,19,22H,10-13,16-18H2,1-2H3,(H,31,37)(H2,30,32,33,34)

> <Ligand InChI Key>
BLQJPEQBTMZVKM-UHFFFAOYSA-N

> <BindingDB MonomerID>
50044462

> <BindingDB Ligand Name>
CHEMBL3357457

> <Target Name Assigned by Curator or DataSource>
ALK tyrosine kinase receptor

> <Target Source Organism According to Curator or DataSource>
Homo sapiens

> <Ki (nM)>


> <IC50 (nM)>
 4.9

> <Kd (nM)>


> <EC50 (nM)>


> <kon (M-1-s-1)>


> <koff (s-1)>


> <pH>


> <Temp C>


> <Curation/DataSource>
ChEMBL

> <Article DOI>
10.1021/jm5005144

> <PMID>
24785465

> <PubChem AID>


> <Patent Number>


> <Authors>
Song, Z; Yang, Y; Liu, Z; Peng, X; Guo, J; Yang, X; Wu, K; Ai, J; Ding, J; Geng, M; Zhang, A

> <Institution>
Chinese Academy of Sciences

> <Link to Ligand in BindingDB>
http://www.bindingdb.org/bind/chemsearch/marvin/MolStructure.jsp?monomerid=50044462

> <Link to Ligand-Target Pair in BindingDB>
http://www.bindingdb.org/jsp/dbsearch/PrimarySearch_ki.jsp?energyterm=kJ/mole&tag=pol&polymerid=5809&target=ALK+tyrosine+kinase+receptor&column=ki&startPg=0&Increment=50&submit=Search

> <Link to Ligand-Target Pair in BindingDB>
http://www.bindingdb.org/jsp/dbsearch/PrimarySearch_ki.jsp?energyterm=kJ/mole&tag=r21&monomerid=50044462&enzyme=ALK+tyrosine+kinase+receptor&column=ki&startPg=0&Increment=50&submit=Search

> <Ligand HET ID in PDB>


> <PDB ID(s) for Ligand-Target Complex>


> <PubChem CID>
118722227

> <PubChem SID>
313068208

> <ChEBI ID of Ligand>


> <ChEMBL ID of Ligand>
CHEMBL3357457

> <DrugBank ID of Ligand>


> <IUPHAR_GRAC ID of Ligand>


> <KEGG ID of Ligand>


> <ZINC ID of Ligand>


> <Number of Protein Chains in Target (>1 implies a multichain complex)>
1

> <BindingDB Target Chain Sequence>
MGAIGLLWLLPLLLSTAAVGSGMGTGQRAGSPAAGPPLQPREPLSYSRLQRKSLAVDFVVPSLFRVYARDLLLPPSSSELKAGRPEARGSLALDCAPLLRLLGPAPGVSWTAGSPAPAEARTLSRVLKGGSVRKLRRAKQLVLELGEEAILEGCVGPPGEAAVGLLQFNLSELFSWWIRQGEGRLRIRLMPEKKASEVGREGRLSAAIRASQPRLLFQIFGTGHSSLESPTNMPSPSPDYFTWNLTWIMKDSFPFLSHRSRYGLECSFDFPCELEYSPPLHDLRNQSWSWRRIPSEEASQMDLLDGPGAERSKEMPRGSFLLLNTSADSKHTILSPWMRSSSEHCTLAVSVHRHLQPSGRYIAQLLPHNEAAREILLMPTPGKHGWTVLQGRIGRPDNPFRVALEYISSGNRSLSAVDFFALKNCSEGTSPGSKMALQSSFTCWNGTVLQLGQACDFHQDCAQGEDESQMCRKLPVGFYCNFEDGFCGWTQGTLSPHTPQWQVRTLKDARFQDHQDHALLLSTTDVPASESATVTSATFPAPIKSSPCELRMSWLIRGVLRGNVSLVLVENKTGKEQGRMVWHVAAYEGLSLWQWMVLPLLDVSDRFWLQMVAWWGQGSRAIVAFDNISISLDCYLTISGEDKILQNTAPKSRNLFERNPNKELKPGENSPRQTPIFDPTVHWLFTTCGASGPHGPTQAQCNNAYQNSNLSVEVGSEGPLKGIQIWKVPATDTYSISGYGAAGGKGGKNTMMRSHGVSVLGIFNLEKDDMLYILVGQQGEDACPSTNQLIQKVCIGENNVIEEEIRVNRSVHEWAGGGGGGGGATYVFKMKDGVPVPLIIAAGGGGRAYGAKTDTFHPERLENNSSVLGLNGNSGAAGGGGGWNDNTSLLWAGKSLQEGATGGHSCPQAMKKWGWETRGGFGGGGGGCSSGGGGGGYIGGNAASNNDPEMDGEDGVSFISPLGILYTPALKVMEGHGEVNIKHYLNCSHCEVDECHMDPESHKVICFCDHGTVLAEDGVSCIVSPTPEPHLPLSLILSVVTSALVAALVLAFSGIMIVYRRKHQELQAMQMELQSPEYKLSKLRTSTIMTDYNPNYCFAGKTSSISDLKEVPRKNITLIRGLGHGAFGEVYEGQVSGMPNDPSPLQVAVKTLPEVCSEQDELDFLMEALIISKFNHQNIVRCIGVSLQSLPRFILLELMAGGDLKSFLRETRPRPSQPSSLAMLDLLHVARDIACGCQYLEENHFIHRDIAARNCLLTCPGPGRVAKIGDFGMARDIYRASYYRKGGCAMLPVKWMPPEAFMEGIFTSKTDTWSFGVLLWEIFSLGYMPYPSKSNQEVLEFVTSGGRMDPPKNCPGPVYRIMTQCWQHQPEDRPNFAIILERIEYCTQDPDVINTALPIEYGPLVEEEEKVPVRPKDPEGVPPLLVSQQAKREEERSPAAPPPLPTTSSGKAAKKPTAAEISVRVPRGPAVEGGHVNMAFSQSNPPSELHKVHGSRNKPTSLWNPTYGSWFTEKPTKKNNPIAKKEPHDRGNLGLEGSCTVPPNVATGRLPGASLLLEPSSLTANMKEVPLFRLRHFPCGNVNYGYQQQGLPLEAATAPGAGHYEDTILKSKNSMNQPGP

> <PDB ID(s) of Target Chain>
2XB7,2XBA,3AOX,5FTO,5FTQ,6E0R,6EBW,6EDL,6MX8

> <UniProt (SwissProt) Recommended Name of Target Chain>
ALK tyrosine kinase receptor

> <UniProt (SwissProt) Entry Name of Target Chain>
ALK_HUMAN

> <UniProt (SwissProt) Primary ID of Target Chain>
Q9UM73

> <UniProt (SwissProt) Secondary ID(s) of Target Chain>
Q4ZFX9,Q53QQ6,Q53RZ4,Q59FI3,Q9Y4K6

> <UniProt (SwissProt) Alternative ID(s) of Target Chain>


> <UniProt (TrEMBL) Submitted Name of Target Chain>


> <UniProt (TrEMBL) Entry Name of Target Chain>


> <UniProt (TrEMBL) Primary ID of Target Chain>


> <UniProt (TrEMBL) Secondary ID(s) of Target Chain>


> <UniProt (TrEMBL) Alternative ID(s) of Target Chain>


$$$$
BindingDB_50044463_mol_1

Vconf v2.0 Academic SN VC001-00000579
 45 48  0  0  0  0  0  0  0  0999 V2000
   11.9074  -25.9144    0.0000 C   0  0  0  0  0  0  0  0  0  0  0
   11.9198  -25.0900    0.0000 C   0  0  0  0  0  0  0  0  0  0  0
   12.6413  -24.6886    0.0000 O   0  0  0  0  0  0  0  0  0  0  0
   11.2149  -24.6671    0.0000 N   0  0  0  0  0  0  0  0  0  0  0
   10.4933  -25.0684    0.0000 C   0  0  0  0  0  0  0  0  0  0  0
    9.7842  -24.6454    0.0000 C   0  0  0  0  0  0  0  0  0  0  0
    9.0627  -25.0467    0.0000 C   0  0  0  0  0  0  0  0  0  0  0
    9.0503  -25.8711    0.0000 C   0  0  0  0  0  0  0  0  0  0  0
    9.7593  -26.2941    0.0000 C   0  0  0  0  0  0  0  0  0  0  0
   10.4809  -25.8928    0.0000 C   0  0  0  0  0  0  0  0  0  0  0
    8.3577  -24.6238    0.0000 N   0  0  0  0  0  0  0  0  0  0  0
    7.6362  -25.0251    0.0000 C   0  0  0  0  0  0  0  0  0  0  0
    6.9313  -24.6022    0.0000 N   0  0  0  0  0  0  0  0  0  0  0
    6.2097  -25.0036    0.0000 C   0  0  0  0  0  0  0  0  0  0  0
    6.1973  -25.8280    0.0000 C   0  0  0  0  0  0  0  0  0  0  0
    6.9063  -26.2509    0.0000 C   0  0  0  0  0  0  0  0  0  0  0
    7.6238  -25.8495    0.0000 N   0  0  0  0  0  0  0  0  0  0  0
    5.5006  -24.5806    0.0000 N   0  0  0  0  0  0  0  0  0  0  0
    4.7833  -24.9820    0.0000 C   0  0  0  0  0  0  0  0  0  0  0
    4.0741  -24.5590    0.0000 C   0  0  0  0  0  0  0  0  0  0  0
    3.3526  -24.9603    0.0000 C   0  0  0  0  0  0  0  0  0  0  0
    3.3402  -25.7847    0.0000 C   0  0  0  0  0  0  0  0  0  0  0
    4.0492  -26.2077    0.0000 C   0  0  0  0  0  0  0  0  0  0  0
    4.7708  -25.8064    0.0000 C   0  0  0  0  0  0  0  0  0  0  0
    4.0867  -23.7346    0.0000 S   0  0  0  0  0  0  0  0  0  0  0
    4.9110  -23.7470    0.0000 O   0  0  0  0  0  0  0  0  0  0  0
    3.3824  -23.3066    0.0000 C   0  0  0  0  0  0  0  0  0  0  0
    2.6608  -23.7080    0.0000 C   0  0  0  0  0  0  0  0  0  0  0
    3.3972  -22.4812    0.0000 C   0  0  0  0  0  0  0  0  0  0  0
    5.4757  -26.2293    0.0000 Cl  0  0  0  0  0  0  0  0  0  0  0
    4.4929  -23.0143    0.0000 O   0  0  0  0  0  0  0  0  0  0  0
   12.6150  -26.3374    0.0000 N   0  0  0  0  0  0  0  0  0  0  0
   12.5980  -27.1624    0.0000 C   0  0  0  0  0  0  0  0  0  0  0
   13.3016  -27.5852    0.0000 C   0  0  0  0  0  0  0  0  0  0  0
   14.0241  -27.1874    0.0000 N   0  0  0  0  0  0  0  0  0  0  0
   14.0386  -26.3620    0.0000 C   0  0  0  0  0  0  0  0  0  0  0
   13.3305  -25.9345    0.0000 C   0  0  0  0  0  0  0  0  0  0  0
   14.7302  -27.6130    0.0000 C   0  0  0  0  0  0  0  0  0  0  0
   14.7146  -28.4373    0.0000 C   0  0  0  0  0  0  0  0  0  0  0
   15.4518  -27.2143    0.0000 O   0  0  0  0  0  0  0  0  0  0  0
   15.4207  -28.8630    0.0000 C   0  0  0  0  0  0  0  0  0  0  0
   15.4051  -29.6873    0.0000 C   0  0  0  0  0  0  0  0  0  0  0
   16.1112  -30.1130    0.0000 N   0  0  0  0  0  0  0  0  0  0  0
   16.0956  -30.9373    0.0000 C   0  0  0  0  0  0  0  0  0  0  0
   16.8328  -29.7143    0.0000 C   0  0  0  0  0  0  0  0  0  0  0
  2  3  2  0  0  0  0
  2  4  1  0  0  0  0
  1  2  1  0  0  0  0
  5  6  4  0  0  0  0
  6  7  4  0  0  0  0
  7  8  4  0  0  0  0
  8  9  4  0  0  0  0
  9 10  4  0  0  0  0
  5 10  4  0  0  0  0
 12 13  4  0  0  0  0
 13 14  4  0  0  0  0
 14 15  4  0  0  0  0
 15 16  4  0  0  0  0
 16 17  4  0  0  0  0
 12 17  4  0  0  0  0
 19 20  4  0  0  0  0
 20 21  4  0  0  0  0
 21 22  4  0  0  0  0
 22 23  4  0  0  0  0
 23 24  4  0  0  0  0
 19 24  4  0  0  0  0
 25 26  2  0  0  0  0
 27 28  1  0  0  0  0
 27 29  1  0  0  0  0
 25 27  1  0  0  0  0
 20 25  1  0  0  0  0
 18 19  1  0  0  0  0
 14 18  1  0  0  0  0
 15 30  1  0  0  0  0
 11 12  1  0  0  0  0
  7 11  1  0  0  0  0
  4  5  1  0  0  0  0
 25 31  2  0  0  0  0
  1 32  1  0  0  0  0
 32 33  1  0  0  0  0
 32 37  1  0  0  0  0
 33 34  1  0  0  0  0
 34 35  1  0  0  0  0
 35 36  1  0  0  0  0
 36 37  1  0  0  0  0
 35 38  1  0  0  0  0
 38 39  1  0  0  0  0
 38 40  2  0  0  0  0
 39 41  2  0  0  0  0
 41 42  1  0  0  0  0
 42 43  1  0  0  0  0
 43 44  1  0  0  0  0
 43 45  1  0  0  0  0
M  END
> <From>
www.bindingDB.org

> <BindingDB Reactant_set_id>
50266102

> <Ligand InChI>
InChI=1S/C31H39ClN8O4S/c1-22(2)45(43,44)27-12-6-5-11-26(27)36-30-25(32)20-33-31(37-30)35-24-10-7-9-23(19-24)34-28(41)21-39-15-17-40(18-16-39)29(42)13-8-14-38(3)4/h5-13,19-20,22H,14-18,21H2,1-4H3,(H,34,41)(H2,33,35,36,37)/b13-8+

> <Ligand InChI Key>
FJSAYHJPHADVOT-MDWZMJQESA-N

> <BindingDB MonomerID>
50044463

> <BindingDB Ligand Name>
CHEMBL3357458

> <Target Name Assigned by Curator or DataSource>
ALK tyrosine kinase receptor

> <Target Source Organism According to Curator or DataSource>
Homo sapiens

> <Ki (nM)>


> <IC50 (nM)>
 0.700000

> <Kd (nM)>


> <EC50 (nM)>


> <kon (M-1-s-1)>


> <koff (s-1)>


> <pH>


> <Temp C>


> <Curation/DataSource>
ChEMBL

> <Article DOI>
10.1021/jm5005144

> <PMID>
24785465

> <PubChem AID>


> <Patent Number>


> <Authors>
Song, Z; Yang, Y; Liu, Z; Peng, X; Guo, J; Yang, X; Wu, K; Ai, J; Ding, J; Geng, M; Zhang, A

> <Institution>
Chinese Academy of Sciences

> <Link to Ligand in BindingDB>
http://www.bindingdb.org/bind/chemsearch/marvin/MolStructure.jsp?monomerid=50044463

> <Link to Ligand-Target Pair in BindingDB>
http://www.bindingdb.org/jsp/dbsearch/PrimarySearch_ki.jsp?energyterm=kJ/mole&tag=pol&polymerid=5809&target=ALK+tyrosine+kinase+receptor&column=ki&startPg=0&Increment=50&submit=Search

> <Link to Ligand-Target Pair in BindingDB>
http://www.bindingdb.org/jsp/dbsearch/PrimarySearch_ki.jsp?energyterm=kJ/mole&tag=r21&monomerid=50044463&enzyme=ALK+tyrosine+kinase+receptor&column=ki&startPg=0&Increment=50&submit=Search

> <Ligand HET ID in PDB>


> <PDB ID(s) for Ligand-Target Complex>


> <PubChem CID>
118722228

> <PubChem SID>
313068209

> <ChEBI ID of Ligand>


> <ChEMBL ID of Ligand>
CHEMBL3357458

> <DrugBank ID of Ligand>


> <IUPHAR_GRAC ID of Ligand>


> <KEGG ID of Ligand>


> <ZINC ID of Ligand>


> <Number of Protein Chains in Target (>1 implies a multichain complex)>
1

> <BindingDB Target Chain Sequence>
MGAIGLLWLLPLLLSTAAVGSGMGTGQRAGSPAAGPPLQPREPLSYSRLQRKSLAVDFVVPSLFRVYARDLLLPPSSSELKAGRPEARGSLALDCAPLLRLLGPAPGVSWTAGSPAPAEARTLSRVLKGGSVRKLRRAKQLVLELGEEAILEGCVGPPGEAAVGLLQFNLSELFSWWIRQGEGRLRIRLMPEKKASEVGREGRLSAAIRASQPRLLFQIFGTGHSSLESPTNMPSPSPDYFTWNLTWIMKDSFPFLSHRSRYGLECSFDFPCELEYSPPLHDLRNQSWSWRRIPSEEASQMDLLDGPGAERSKEMPRGSFLLLNTSADSKHTILSPWMRSSSEHCTLAVSVHRHLQPSGRYIAQLLPHNEAAREILLMPTPGKHGWTVLQGRIGRPDNPFRVALEYISSGNRSLSAVDFFALKNCSEGTSPGSKMALQSSFTCWNGTVLQLGQACDFHQDCAQGEDESQMCRKLPVGFYCNFEDGFCGWTQGTLSPHTPQWQVRTLKDARFQDHQDHALLLSTTDVPASESATVTSATFPAPIKSSPCELRMSWLIRGVLRGNVSLVLVENKTGKEQGRMVWHVAAYEGLSLWQWMVLPLLDVSDRFWLQMVAWWGQGSRAIVAFDNISISLDCYLTISGEDKILQNTAPKSRNLFERNPNKELKPGENSPRQTPIFDPTVHWLFTTCGASGPHGPTQAQCNNAYQNSNLSVEVGSEGPLKGIQIWKVPATDTYSISGYGAAGGKGGKNTMMRSHGVSVLGIFNLEKDDMLYILVGQQGEDACPSTNQLIQKVCIGENNVIEEEIRVNRSVHEWAGGGGGGGGATYVFKMKDGVPVPLIIAAGGGGRAYGAKTDTFHPERLENNSSVLGLNGNSGAAGGGGGWNDNTSLLWAGKSLQEGATGGHSCPQAMKKWGWETRGGFGGGGGGCSSGGGGGGYIGGNAASNNDPEMDGEDGVSFISPLGILYTPALKVMEGHGEVNIKHYLNCSHCEVDECHMDPESHKVICFCDHGTVLAEDGVSCIVSPTPEPHLPLSLILSVVTSALVAALVLAFSGIMIVYRRKHQELQAMQMELQSPEYKLSKLRTSTIMTDYNPNYCFAGKTSSISDLKEVPRKNITLIRGLGHGAFGEVYEGQVSGMPNDPSPLQVAVKTLPEVCSEQDELDFLMEALIISKFNHQNIVRCIGVSLQSLPRFILLELMAGGDLKSFLRETRPRPSQPSSLAMLDLLHVARDIACGCQYLEENHFIHRDIAARNCLLTCPGPGRVAKIGDFGMARDIYRASYYRKGGCAMLPVKWMPPEAFMEGIFTSKTDTWSFGVLLWEIFSLGYMPYPSKSNQEVLEFVTSGGRMDPPKNCPGPVYRIMTQCWQHQPEDRPNFAIILERIEYCTQDPDVINTALPIEYGPLVEEEEKVPVRPKDPEGVPPLLVSQQAKREEERSPAAPPPLPTTSSGKAAKKPTAAEISVRVPRGPAVEGGHVNMAFSQSNPPSELHKVHGSRNKPTSLWNPTYGSWFTEKPTKKNNPIAKKEPHDRGNLGLEGSCTVPPNVATGRLPGASLLLEPSSLTANMKEVPLFRLRHFPCGNVNYGYQQQGLPLEAATAPGAGHYEDTILKSKNSMNQPGP

> <PDB ID(s) of Target Chain>
2XB7,2XBA,3AOX,5FTO,5FTQ,6E0R,6EBW,6EDL,6MX8

> <UniProt (SwissProt) Recommended Name of Target Chain>
ALK tyrosine kinase receptor

> <UniProt (SwissProt) Entry Name of Target Chain>
ALK_HUMAN

> <UniProt (SwissProt) Primary ID of Target Chain>
Q9UM73

> <UniProt (SwissProt) Secondary ID(s) of Target Chain>
Q4ZFX9,Q53QQ6,Q53RZ4,Q59FI3,Q9Y4K6

> <UniProt (SwissProt) Alternative ID(s) of Target Chain>


> <UniProt (TrEMBL) Submitted Name of Target Chain>


> <UniProt (TrEMBL) Entry Name of Target Chain>


> <UniProt (TrEMBL) Primary ID of Target Chain>


> <UniProt (TrEMBL) Secondary ID(s) of Target Chain>


> <UniProt (TrEMBL) Alternative ID(s) of Target Chain>


$$$$
BindingDB_50044464_mol_1

Vconf v2.0 Academic SN VC001-00000579
 41 44  0  0  0  0  0  0  0  0999 V2000
   23.3951  -26.4403    0.0000 C   0  0  0  0  0  0  0  0  0  0  0
   23.4076  -25.6165    0.0000 C   0  0  0  0  0  0  0  0  0  0  0
   24.1286  -25.2154    0.0000 O   0  0  0  0  0  0  0  0  0  0  0
   22.7032  -25.1939    0.0000 N   0  0  0  0  0  0  0  0  0  0  0
   21.9821  -25.5950    0.0000 C   0  0  0  0  0  0  0  0  0  0  0
   21.2736  -25.1723    0.0000 C   0  0  0  0  0  0  0  0  0  0  0
   20.5526  -25.5733    0.0000 C   0  0  0  0  0  0  0  0  0  0  0
   20.5401  -26.3971    0.0000 C   0  0  0  0  0  0  0  0  0  0  0
   21.2486  -26.8198    0.0000 C   0  0  0  0  0  0  0  0  0  0  0
   21.9696  -26.4187    0.0000 C   0  0  0  0  0  0  0  0  0  0  0
   19.8482  -25.1507    0.0000 N   0  0  0  0  0  0  0  0  0  0  0
   19.1271  -25.5517    0.0000 C   0  0  0  0  0  0  0  0  0  0  0
   18.4227  -25.1291    0.0000 N   0  0  0  0  0  0  0  0  0  0  0
   17.7017  -25.5301    0.0000 C   0  0  0  0  0  0  0  0  0  0  0
   17.6892  -26.3539    0.0000 C   0  0  0  0  0  0  0  0  0  0  0
   18.3977  -26.7766    0.0000 C   0  0  0  0  0  0  0  0  0  0  0
   19.1146  -26.3755    0.0000 N   0  0  0  0  0  0  0  0  0  0  0
   16.9932  -25.1074    0.0000 N   0  0  0  0  0  0  0  0  0  0  0
   16.2763  -25.5086    0.0000 C   0  0  0  0  0  0  0  0  0  0  0
   15.5677  -25.0859    0.0000 C   0  0  0  0  0  0  0  0  0  0  0
   14.8467  -25.4870    0.0000 C   0  0  0  0  0  0  0  0  0  0  0
   14.8342  -26.3108    0.0000 C   0  0  0  0  0  0  0  0  0  0  0
   15.5427  -26.7334    0.0000 C   0  0  0  0  0  0  0  0  0  0  0
   16.2638  -26.3323    0.0000 C   0  0  0  0  0  0  0  0  0  0  0
   15.5801  -24.2621    0.0000 S   0  0  0  0  0  0  0  0  0  0  0
   16.4039  -24.2746    0.0000 O   0  0  0  0  0  0  0  0  0  0  0
   14.8765  -23.8345    0.0000 C   0  0  0  0  0  0  0  0  0  0  0
   14.1554  -24.2355    0.0000 C   0  0  0  0  0  0  0  0  0  0  0
   14.8912  -23.0097    0.0000 C   0  0  0  0  0  0  0  0  0  0  0
   16.9682  -26.7550    0.0000 Cl  0  0  0  0  0  0  0  0  0  0  0
   15.9861  -23.5424    0.0000 O   0  0  0  0  0  0  0  0  0  0  0
   24.1022  -26.8629    0.0000 N   0  0  0  0  0  0  0  0  0  0  0
   24.0852  -27.6873    0.0000 C   0  0  0  0  0  0  0  0  0  0  0
   24.7882  -28.1098    0.0000 C   0  0  0  0  0  0  0  0  0  0  0
   25.5103  -27.7123    0.0000 N   0  0  0  0  0  0  0  0  0  0  0
   25.5247  -26.8876    0.0000 C   0  0  0  0  0  0  0  0  0  0  0
   24.8172  -26.4605    0.0000 C   0  0  0  0  0  0  0  0  0  0  0
   26.2158  -28.1376    0.0000 C   0  0  0  0  0  0  0  0  0  0  0
   26.2003  -28.9614    0.0000 C   0  0  0  0  0  0  0  0  0  0  0
   26.9370  -27.7393    0.0000 O   0  0  0  0  0  0  0  0  0  0  0
   25.4791  -29.3597    0.0000 O   0  0  0  0  0  0  0  0  0  0  0
  2  3  2  0  0  0  0
  2  4  1  0  0  0  0
  1  2  1  0  0  0  0
  5  6  4  0  0  0  0
  6  7  4  0  0  0  0
  7  8  4  0  0  0  0
  8  9  4  0  0  0  0
  9 10  4  0  0  0  0
  5 10  4  0  0  0  0
 12 13  4  0  0  0  0
 13 14  4  0  0  0  0
 14 15  4  0  0  0  0
 15 16  4  0  0  0  0
 16 17  4  0  0  0  0
 12 17  4  0  0  0  0
 19 20  4  0  0  0  0
 20 21  4  0  0  0  0
 21 22  4  0  0  0  0
 22 23  4  0  0  0  0
 23 24  4  0  0  0  0
 19 24  4  0  0  0  0
 25 26  2  0  0  0  0
 27 28  1  0  0  0  0
 27 29  1  0  0  0  0
 25 27  1  0  0  0  0
 20 25  1  0  0  0  0
 18 19  1  0  0  0  0
 14 18  1  0  0  0  0
 15 30  1  0  0  0  0
 11 12  1  0  0  0  0
  7 11  1  0  0  0  0
  4  5  1  0  0  0  0
 25 31  2  0  0  0  0
  1 32  1  0  0  0  0
 32 33  1  0  0  0  0
 32 37  1  0  0  0  0
 33 34  1  0  0  0  0
 34 35  1  0  0  0  0
 35 36  1  0  0  0  0
 36 37  1  0  0  0  0
 35 38  1  0  0  0  0
 38 39  1  0  0  0  0
 38 40  2  0  0  0  0
 39 41  1  0  0  0  0
M  END
> <From>
www.bindingDB.org

> <BindingDB Reactant_set_id>
50266103

> <Ligand InChI>
InChI=1S/C27H32ClN7O5S/c1-18(2)41(39,40)23-9-4-3-8-22(23)32-26-21(28)15-29-27(33-26)31-20-7-5-6-19(14-20)30-24(37)16-34-10-12-35(13-11-34)25(38)17-36/h3-9,14-15,18,36H,10-13,16-17H2,1-2H3,(H,30,37)(H2,29,31,32,33)

> <Ligand InChI Key>
YRQIZIMDOXXDDC-UHFFFAOYSA-N

> <BindingDB MonomerID>
50044464

> <BindingDB Ligand Name>
CHEMBL3357459

> <Target Name Assigned by Curator or DataSource>
ALK tyrosine kinase receptor

> <Target Source Organism According to Curator or DataSource>
Homo sapiens

> <Ki (nM)>


> <IC50 (nM)>
 9.0

> <Kd (nM)>


> <EC50 (nM)>


> <kon (M-1-s-1)>


> <koff (s-1)>


> <pH>


> <Temp C>


> <Curation/DataSource>
ChEMBL

> <Article DOI>
10.1021/jm5005144

> <PMID>
24785465

> <PubChem AID>


> <Patent Number>


> <Authors>
Song, Z; Yang, Y; Liu, Z; Peng, X; Guo, J; Yang, X; Wu, K; Ai, J; Ding, J; Geng, M; Zhang, A

> <Institution>
Chinese Academy of Sciences

> <Link to Ligand in BindingDB>
http://www.bindingdb.org/bind/chemsearch/marvin/MolStructure.jsp?monomerid=50044464

> <Link to Ligand-Target Pair in BindingDB>
http://www.bindingdb.org/jsp/dbsearch/PrimarySearch_ki.jsp?energyterm=kJ/mole&tag=pol&polymerid=5809&target=ALK+tyrosine+kinase+receptor&column=ki&startPg=0&Increment=50&submit=Search

> <Link to Ligand-Target Pair in BindingDB>
http://www.bindingdb.org/jsp/dbsearch/PrimarySearch_ki.jsp?energyterm=kJ/mole&tag=r21&monomerid=50044464&enzyme=ALK+tyrosine+kinase+receptor&column=ki&startPg=0&Increment=50&submit=Search

> <Ligand HET ID in PDB>


> <PDB ID(s) for Ligand-Target Complex>


> <PubChem CID>
118722229

> <PubChem SID>
313068210

> <ChEBI ID of Ligand>


> <ChEMBL ID of Ligand>
CHEMBL3357459

> <DrugBank ID of Ligand>


> <IUPHAR_GRAC ID of Ligand>


> <KEGG ID of Ligand>


> <ZINC ID of Ligand>


> <Number of Protein Chains in Target (>1 implies a multichain complex)>
1

> <BindingDB Target Chain Sequence>
MGAIGLLWLLPLLLSTAAVGSGMGTGQRAGSPAAGPPLQPREPLSYSRLQRKSLAVDFVVPSLFRVYARDLLLPPSSSELKAGRPEARGSLALDCAPLLRLLGPAPGVSWTAGSPAPAEARTLSRVLKGGSVRKLRRAKQLVLELGEEAILEGCVGPPGEAAVGLLQFNLSELFSWWIRQGEGRLRIRLMPEKKASEVGREGRLSAAIRASQPRLLFQIFGTGHSSLESPTNMPSPSPDYFTWNLTWIMKDSFPFLSHRSRYGLECSFDFPCELEYSPPLHDLRNQSWSWRRIPSEEASQMDLLDGPGAERSKEMPRGSFLLLNTSADSKHTILSPWMRSSSEHCTLAVSVHRHLQPSGRYIAQLLPHNEAAREILLMPTPGKHGWTVLQGRIGRPDNPFRVALEYISSGNRSLSAVDFFALKNCSEGTSPGSKMALQSSFTCWNGTVLQLGQACDFHQDCAQGEDESQMCRKLPVGFYCNFEDGFCGWTQGTLSPHTPQWQVRTLKDARFQDHQDHALLLSTTDVPASESATVTSATFPAPIKSSPCELRMSWLIRGVLRGNVSLVLVENKTGKEQGRMVWHVAAYEGLSLWQWMVLPLLDVSDRFWLQMVAWWGQGSRAIVAFDNISISLDCYLTISGEDKILQNTAPKSRNLFERNPNKELKPGENSPRQTPIFDPTVHWLFTTCGASGPHGPTQAQCNNAYQNSNLSVEVGSEGPLKGIQIWKVPATDTYSISGYGAAGGKGGKNTMMRSHGVSVLGIFNLEKDDMLYILVGQQGEDACPSTNQLIQKVCIGENNVIEEEIRVNRSVHEWAGGGGGGGGATYVFKMKDGVPVPLIIAAGGGGRAYGAKTDTFHPERLENNSSVLGLNGNSGAAGGGGGWNDNTSLLWAGKSLQEGATGGHSCPQAMKKWGWETRGGFGGGGGGCSSGGGGGGYIGGNAASNNDPEMDGEDGVSFISPLGILYTPALKVMEGHGEVNIKHYLNCSHCEVDECHMDPESHKVICFCDHGTVLAEDGVSCIVSPTPEPHLPLSLILSVVTSALVAALVLAFSGIMIVYRRKHQELQAMQMELQSPEYKLSKLRTSTIMTDYNPNYCFAGKTSSISDLKEVPRKNITLIRGLGHGAFGEVYEGQVSGMPNDPSPLQVAVKTLPEVCSEQDELDFLMEALIISKFNHQNIVRCIGVSLQSLPRFILLELMAGGDLKSFLRETRPRPSQPSSLAMLDLLHVARDIACGCQYLEENHFIHRDIAARNCLLTCPGPGRVAKIGDFGMARDIYRASYYRKGGCAMLPVKWMPPEAFMEGIFTSKTDTWSFGVLLWEIFSLGYMPYPSKSNQEVLEFVTSGGRMDPPKNCPGPVYRIMTQCWQHQPEDRPNFAIILERIEYCTQDPDVINTALPIEYGPLVEEEEKVPVRPKDPEGVPPLLVSQQAKREEERSPAAPPPLPTTSSGKAAKKPTAAEISVRVPRGPAVEGGHVNMAFSQSNPPSELHKVHGSRNKPTSLWNPTYGSWFTEKPTKKNNPIAKKEPHDRGNLGLEGSCTVPPNVATGRLPGASLLLEPSSLTANMKEVPLFRLRHFPCGNVNYGYQQQGLPLEAATAPGAGHYEDTILKSKNSMNQPGP

> <PDB ID(s) of Target Chain>
2XB7,2XBA,3AOX,5FTO,5FTQ,6E0R,6EBW,6EDL,6MX8

> <UniProt (SwissProt) Recommended Name of Target Chain>
ALK tyrosine kinase receptor

> <UniProt (SwissProt) Entry Name of Target Chain>
ALK_HUMAN

> <UniProt (SwissProt) Primary ID of Target Chain>
Q9UM73

> <UniProt (SwissProt) Secondary ID(s) of Target Chain>
Q4ZFX9,Q53QQ6,Q53RZ4,Q59FI3,Q9Y4K6

> <UniProt (SwissProt) Alternative ID(s) of Target Chain>


> <UniProt (TrEMBL) Submitted Name of Target Chain>


> <UniProt (TrEMBL) Entry Name of Target Chain>


> <UniProt (TrEMBL) Primary ID of Target Chain>


> <UniProt (TrEMBL) Secondary ID(s) of Target Chain>


> <UniProt (TrEMBL) Alternative ID(s) of Target Chain>


$$$$
BindingDB_50044465_mol_1

Vconf v2.0 Academic SN VC001-00000579
 38 42  0  0  0  0  0  0  0  0999 V2000
   32.8360  -26.8105    0.0000 C   0  0  0  0  0  0  0  0  0  0  0
   32.8484  -25.9867    0.0000 C   0  0  0  0  0  0  0  0  0  0  0
   33.5694  -25.5856    0.0000 O   0  0  0  0  0  0  0  0  0  0  0
   32.1441  -25.5641    0.0000 N   0  0  0  0  0  0  0  0  0  0  0
   31.4230  -25.9651    0.0000 C   0  0  0  0  0  0  0  0  0  0  0
   30.7144  -25.5424    0.0000 C   0  0  0  0  0  0  0  0  0  0  0
   29.9934  -25.9434    0.0000 C   0  0  0  0  0  0  0  0  0  0  0
   29.9810  -26.7672    0.0000 C   0  0  0  0  0  0  0  0  0  0  0
   30.6895  -27.1899    0.0000 C   0  0  0  0  0  0  0  0  0  0  0
   31.4105  -26.7889    0.0000 C   0  0  0  0  0  0  0  0  0  0  0
   29.2890  -25.5208    0.0000 N   0  0  0  0  0  0  0  0  0  0  0
   28.5681  -25.9219    0.0000 C   0  0  0  0  0  0  0  0  0  0  0
   27.8637  -25.4992    0.0000 N   0  0  0  0  0  0  0  0  0  0  0
   27.1426  -25.9003    0.0000 C   0  0  0  0  0  0  0  0  0  0  0
   27.1301  -26.7241    0.0000 C   0  0  0  0  0  0  0  0  0  0  0
   27.8387  -27.1468    0.0000 C   0  0  0  0  0  0  0  0  0  0  0
   28.5556  -26.7456    0.0000 N   0  0  0  0  0  0  0  0  0  0  0
   26.4340  -25.4777    0.0000 N   0  0  0  0  0  0  0  0  0  0  0
   25.7172  -25.8787    0.0000 C   0  0  0  0  0  0  0  0  0  0  0
   25.0086  -25.4561    0.0000 C   0  0  0  0  0  0  0  0  0  0  0
   24.2877  -25.8571    0.0000 C   0  0  0  0  0  0  0  0  0  0  0
   24.2752  -26.6809    0.0000 C   0  0  0  0  0  0  0  0  0  0  0
   24.9837  -27.1036    0.0000 C   0  0  0  0  0  0  0  0  0  0  0
   25.7047  -26.7025    0.0000 C   0  0  0  0  0  0  0  0  0  0  0
   25.0211  -24.6323    0.0000 S   0  0  0  0  0  0  0  0  0  0  0
   25.8448  -24.6447    0.0000 O   0  0  0  0  0  0  0  0  0  0  0
   24.3174  -24.2047    0.0000 C   0  0  0  0  0  0  0  0  0  0  0
   23.5963  -24.6057    0.0000 C   0  0  0  0  0  0  0  0  0  0  0
   24.3321  -23.3798    0.0000 C   0  0  0  0  0  0  0  0  0  0  0
   26.4091  -27.1252    0.0000 Cl  0  0  0  0  0  0  0  0  0  0  0
   25.4271  -23.9125    0.0000 O   0  0  0  0  0  0  0  0  0  0  0
   33.5431  -27.2331    0.0000 N   0  0  0  0  0  0  0  0  0  0  0
   33.5260  -28.0575    0.0000 C   0  0  0  0  0  0  0  0  0  0  0
   34.2291  -28.4800    0.0000 C   0  0  0  0  0  0  0  0  0  0  0
   34.9512  -28.0824    0.0000 N   0  0  0  0  0  0  0  0  0  0  0
   34.9656  -27.2578    0.0000 C   0  0  0  0  0  0  0  0  0  0  0
   34.2581  -26.8306    0.0000 C   0  0  0  0  0  0  0  0  0  0  0
   34.0401  -27.6240    0.0000 C   0  0  0  0  0  0  0  0  0  0  0
  2  3  2  0  0  0  0
  2  4  1  0  0  0  0
  1  2  1  0  0  0  0
  5  6  4  0  0  0  0
  6  7  4  0  0  0  0
  7  8  4  0  0  0  0
  8  9  4  0  0  0  0
  9 10  4  0  0  0  0
  5 10  4  0  0  0  0
 12 13  4  0  0  0  0
 13 14  4  0  0  0  0
 14 15  4  0  0  0  0
 15 16  4  0  0  0  0
 16 17  4  0  0  0  0
 12 17  4  0  0  0  0
 19 20  4  0  0  0  0
 20 21  4  0  0  0  0
 21 22  4  0  0  0  0
 22 23  4  0  0  0  0
 23 24  4  0  0  0  0
 19 24  4  0  0  0  0
 25 26  2  0  0  0  0
 27 28  1  0  0  0  0
 27 29  1  0  0  0  0
 25 27  1  0  0  0  0
 20 25  1  0  0  0  0
 18 19  1  0  0  0  0
 14 18  1  0  0  0  0
 15 30  1  0  0  0  0
 11 12  1  0  0  0  0
  7 11  1  0  0  0  0
  4  5  1  0  0  0  0
 25 31  2  0  0  0  0
  1 32  1  0  0  0  0
 32 33  1  0  0  0  0
 32 37  1  0  0  0  0
 33 34  1  0  0  0  0
 34 35  1  0  0  0  0
 35 36  1  0  0  0  0
 36 37  1  0  0  0  0
 37 38  1  0  0  0  0
 38 34  1  0  0  0  0
M  END
> <From>
www.bindingDB.org

> <BindingDB Reactant_set_id>
50266104

> <Ligand InChI>
InChI=1S/C26H30ClN7O3S/c1-16(2)38(36,37)23-9-4-3-8-22(23)32-25-21(27)13-29-26(33-25)31-18-7-5-6-17(10-18)30-24(35)15-34-14-19-11-20(34)12-28-19/h3-10,13,16,19-20,28H,11-12,14-15H2,1-2H3,(H,30,35)(H2,29,31,32,33)

> <Ligand InChI Key>
VGPUSZSVCBVTBJ-UHFFFAOYSA-N

> <BindingDB MonomerID>
50044465

> <BindingDB Ligand Name>
CHEMBL3357460

> <Target Name Assigned by Curator or DataSource>
ALK tyrosine kinase receptor

> <Target Source Organism According to Curator or DataSource>
Homo sapiens

> <Ki (nM)>


> <IC50 (nM)>
 2.3

> <Kd (nM)>


> <EC50 (nM)>


> <kon (M-1-s-1)>


> <koff (s-1)>


> <pH>


> <Temp C>


> <Curation/DataSource>
ChEMBL

> <Article DOI>
10.1021/jm5005144

> <PMID>
24785465

> <PubChem AID>


> <Patent Number>


> <Authors>
Song, Z; Yang, Y; Liu, Z; Peng, X; Guo, J; Yang, X; Wu, K; Ai, J; Ding, J; Geng, M; Zhang, A

> <Institution>
Chinese Academy of Sciences

> <Link to Ligand in BindingDB>
http://www.bindingdb.org/bind/chemsearch/marvin/MolStructure.jsp?monomerid=50044465

> <Link to Ligand-Target Pair in BindingDB>
http://www.bindingdb.org/jsp/dbsearch/PrimarySearch_ki.jsp?energyterm=kJ/mole&tag=pol&polymerid=5809&target=ALK+tyrosine+kinase+receptor&column=ki&startPg=0&Increment=50&submit=Search

> <Link to Ligand-Target Pair in BindingDB>
http://www.bindingdb.org/jsp/dbsearch/PrimarySearch_ki.jsp?energyterm=kJ/mole&tag=r21&monomerid=50044465&enzyme=ALK+tyrosine+kinase+receptor&column=ki&startPg=0&Increment=50&submit=Search

> <Ligand HET ID in PDB>


> <PDB ID(s) for Ligand-Target Complex>


> <PubChem CID>
118722230

> <PubChem SID>
313068211

> <ChEBI ID of Ligand>


> <ChEMBL ID of Ligand>
CHEMBL3357460

> <DrugBank ID of Ligand>


> <IUPHAR_GRAC ID of Ligand>


> <KEGG ID of Ligand>


> <ZINC ID of Ligand>


> <Number of Protein Chains in Target (>1 implies a multichain complex)>
1

> <BindingDB Target Chain Sequence>
MGAIGLLWLLPLLLSTAAVGSGMGTGQRAGSPAAGPPLQPREPLSYSRLQRKSLAVDFVVPSLFRVYARDLLLPPSSSELKAGRPEARGSLALDCAPLLRLLGPAPGVSWTAGSPAPAEARTLSRVLKGGSVRKLRRAKQLVLELGEEAILEGCVGPPGEAAVGLLQFNLSELFSWWIRQGEGRLRIRLMPEKKASEVGREGRLSAAIRASQPRLLFQIFGTGHSSLESPTNMPSPSPDYFTWNLTWIMKDSFPFLSHRSRYGLECSFDFPCELEYSPPLHDLRNQSWSWRRIPSEEASQMDLLDGPGAERSKEMPRGSFLLLNTSADSKHTILSPWMRSSSEHCTLAVSVHRHLQPSGRYIAQLLPHNEAAREILLMPTPGKHGWTVLQGRIGRPDNPFRVALEYISSGNRSLSAVDFFALKNCSEGTSPGSKMALQSSFTCWNGTVLQLGQACDFHQDCAQGEDESQMCRKLPVGFYCNFEDGFCGWTQGTLSPHTPQWQVRTLKDARFQDHQDHALLLSTTDVPASESATVTSATFPAPIKSSPCELRMSWLIRGVLRGNVSLVLVENKTGKEQGRMVWHVAAYEGLSLWQWMVLPLLDVSDRFWLQMVAWWGQGSRAIVAFDNISISLDCYLTISGEDKILQNTAPKSRNLFERNPNKELKPGENSPRQTPIFDPTVHWLFTTCGASGPHGPTQAQCNNAYQNSNLSVEVGSEGPLKGIQIWKVPATDTYSISGYGAAGGKGGKNTMMRSHGVSVLGIFNLEKDDMLYILVGQQGEDACPSTNQLIQKVCIGENNVIEEEIRVNRSVHEWAGGGGGGGGATYVFKMKDGVPVPLIIAAGGGGRAYGAKTDTFHPERLENNSSVLGLNGNSGAAGGGGGWNDNTSLLWAGKSLQEGATGGHSCPQAMKKWGWETRGGFGGGGGGCSSGGGGGGYIGGNAASNNDPEMDGEDGVSFISPLGILYTPALKVMEGHGEVNIKHYLNCSHCEVDECHMDPESHKVICFCDHGTVLAEDGVSCIVSPTPEPHLPLSLILSVVTSALVAALVLAFSGIMIVYRRKHQELQAMQMELQSPEYKLSKLRTSTIMTDYNPNYCFAGKTSSISDLKEVPRKNITLIRGLGHGAFGEVYEGQVSGMPNDPSPLQVAVKTLPEVCSEQDELDFLMEALIISKFNHQNIVRCIGVSLQSLPRFILLELMAGGDLKSFLRETRPRPSQPSSLAMLDLLHVARDIACGCQYLEENHFIHRDIAARNCLLTCPGPGRVAKIGDFGMARDIYRASYYRKGGCAMLPVKWMPPEAFMEGIFTSKTDTWSFGVLLWEIFSLGYMPYPSKSNQEVLEFVTSGGRMDPPKNCPGPVYRIMTQCWQHQPEDRPNFAIILERIEYCTQDPDVINTALPIEYGPLVEEEEKVPVRPKDPEGVPPLLVSQQAKREEERSPAAPPPLPTTSSGKAAKKPTAAEISVRVPRGPAVEGGHVNMAFSQSNPPSELHKVHGSRNKPTSLWNPTYGSWFTEKPTKKNNPIAKKEPHDRGNLGLEGSCTVPPNVATGRLPGASLLLEPSSLTANMKEVPLFRLRHFPCGNVNYGYQQQGLPLEAATAPGAGHYEDTILKSKNSMNQPGP

> <PDB ID(s) of Target Chain>
2XB7,2XBA,3AOX,5FTO,5FTQ,6E0R,6EBW,6EDL,6MX8

> <UniProt (SwissProt) Recommended Name of Target Chain>
ALK tyrosine kinase receptor

> <UniProt (SwissProt) Entry Name of Target Chain>
ALK_HUMAN

> <UniProt (SwissProt) Primary ID of Target Chain>
Q9UM73

> <UniProt (SwissProt) Secondary ID(s) of Target Chain>
Q4ZFX9,Q53QQ6,Q53RZ4,Q59FI3,Q9Y4K6

> <UniProt (SwissProt) Alternative ID(s) of Target Chain>


> <UniProt (TrEMBL) Submitted Name of Target Chain>


> <UniProt (TrEMBL) Entry Name of Target Chain>


> <UniProt (TrEMBL) Primary ID of Target Chain>


> <UniProt (TrEMBL) Secondary ID(s) of Target Chain>


> <UniProt (TrEMBL) Alternative ID(s) of Target Chain>


$$$$
BindingDB_50044466_mol_1

Vconf v2.0 Academic SN VC001-00000579
 39 43  0  0  0  0  0  0  0  0999 V2000
   11.4575   -5.9646    0.0000 C   0  0  0  0  0  0  0  0  0  0  0
   11.4699   -5.1408    0.0000 C   0  0  0  0  0  0  0  0  0  0  0
   12.1909   -4.7397    0.0000 O   0  0  0  0  0  0  0  0  0  0  0
   10.7656   -4.7182    0.0000 N   0  0  0  0  0  0  0  0  0  0  0
   10.0446   -5.1192    0.0000 C   0  0  0  0  0  0  0  0  0  0  0
    9.3359   -4.6965    0.0000 C   0  0  0  0  0  0  0  0  0  0  0
    8.6149   -5.0975    0.0000 C   0  0  0  0  0  0  0  0  0  0  0
    8.6025   -5.9213    0.0000 C   0  0  0  0  0  0  0  0  0  0  0
    9.3110   -6.3440    0.0000 C   0  0  0  0  0  0  0  0  0  0  0
   10.0321   -5.9430    0.0000 C   0  0  0  0  0  0  0  0  0  0  0
    7.9105   -4.6749    0.0000 N   0  0  0  0  0  0  0  0  0  0  0
    7.1896   -5.0760    0.0000 C   0  0  0  0  0  0  0  0  0  0  0
    6.4852   -4.6533    0.0000 N   0  0  0  0  0  0  0  0  0  0  0
    5.7641   -5.0544    0.0000 C   0  0  0  0  0  0  0  0  0  0  0
    5.7516   -5.8782    0.0000 C   0  0  0  0  0  0  0  0  0  0  0
    6.4602   -6.3009    0.0000 C   0  0  0  0  0  0  0  0  0  0  0
    7.1771   -5.8997    0.0000 N   0  0  0  0  0  0  0  0  0  0  0
    5.0555   -4.6318    0.0000 N   0  0  0  0  0  0  0  0  0  0  0
    4.3387   -5.0328    0.0000 C   0  0  0  0  0  0  0  0  0  0  0
    3.6301   -4.6102    0.0000 C   0  0  0  0  0  0  0  0  0  0  0
    2.9091   -5.0112    0.0000 C   0  0  0  0  0  0  0  0  0  0  0
    2.8966   -5.8350    0.0000 C   0  0  0  0  0  0  0  0  0  0  0
    3.6052   -6.2576    0.0000 C   0  0  0  0  0  0  0  0  0  0  0
    4.3262   -5.8566    0.0000 C   0  0  0  0  0  0  0  0  0  0  0
    3.6426   -3.7864    0.0000 S   0  0  0  0  0  0  0  0  0  0  0
    4.4663   -3.7988    0.0000 O   0  0  0  0  0  0  0  0  0  0  0
    2.9389   -3.3588    0.0000 C   0  0  0  0  0  0  0  0  0  0  0
    2.2177   -3.7597    0.0000 C   0  0  0  0  0  0  0  0  0  0  0
    2.9536   -2.5339    0.0000 C   0  0  0  0  0  0  0  0  0  0  0
    5.0306   -6.2792    0.0000 Cl  0  0  0  0  0  0  0  0  0  0  0
    4.0486   -3.0666    0.0000 O   0  0  0  0  0  0  0  0  0  0  0
   12.1646   -6.3872    0.0000 N   0  0  0  0  0  0  0  0  0  0  0
   12.8454   -5.9352    0.0000 C   0  0  0  0  0  0  0  0  0  0  0
   13.6313   -6.1889    0.0000 C   0  0  0  0  0  0  0  0  0  0  0
   12.0873   -7.2085    0.0000 C   0  0  0  0  0  0  0  0  0  0  0
   13.9248   -6.9573    0.0000 C   0  0  0  0  0  0  0  0  0  0  0
   12.6849   -7.7776    0.0000 C   0  0  0  0  0  0  0  0  0  0  0
   13.5018   -7.6629    0.0000 C   0  0  0  0  0  0  0  0  0  0  0
   12.7364   -6.7864    0.0000 O   0  0  0  0  0  0  0  0  0  0  0
  2  3  2  0  0  0  0
  2  4  1  0  0  0  0
  1  2  1  0  0  0  0
  5  6  4  0  0  0  0
  6  7  4  0  0  0  0
  7  8  4  0  0  0  0
  8  9  4  0  0  0  0
  9 10  4  0  0  0  0
  5 10  4  0  0  0  0
 12 13  4  0  0  0  0
 13 14  4  0  0  0  0
 14 15  4  0  0  0  0
 15 16  4  0  0  0  0
 16 17  4  0  0  0  0
 12 17  4  0  0  0  0
 19 20  4  0  0  0  0
 20 21  4  0  0  0  0
 21 22  4  0  0  0  0
 22 23  4  0  0  0  0
 23 24  4  0  0  0  0
 19 24  4  0  0  0  0
 25 26  2  0  0  0  0
 27 28  1  0  0  0  0
 27 29  1  0  0  0  0
 25 27  1  0  0  0  0
 20 25  1  0  0  0  0
 18 19  1  0  0  0  0
 14 18  1  0  0  0  0
 15 30  1  0  0  0  0
 11 12  1  0  0  0  0
  7 11  1  0  0  0  0
  4  5  1  0  0  0  0
 25 31  2  0  0  0  0
  1 32  1  0  0  0  0
 32 33  1  0  0  0  0
 33 34  1  0  0  0  0
 32 35  1  0  0  0  0
 34 36  1  0  0  0  0
 35 37  1  0  0  0  0
 36 38  1  0  0  0  0
 37 38  1  0  0  0  0
 37 39  1  0  0  0  0
 39 34  1  0  0  0  0
M  END
> <From>
www.bindingDB.org

> <BindingDB Reactant_set_id>
50266105

> <Ligand InChI>
InChI=1S/C27H31ClN6O4S/c1-17(2)39(36,37)24-9-4-3-8-23(24)32-26-22(28)13-29-27(33-26)31-19-7-5-6-18(12-19)30-25(35)16-34-14-20-10-11-21(15-34)38-20/h3-9,12-13,17,20-21H,10-11,14-16H2,1-2H3,(H,30,35)(H2,29,31,32,33)

> <Ligand InChI Key>
QNSVPWJRRFJFHY-UHFFFAOYSA-N

> <BindingDB MonomerID>
50044466

> <BindingDB Ligand Name>
CHEMBL3357461

> <Target Name Assigned by Curator or DataSource>
ALK tyrosine kinase receptor

> <Target Source Organism According to Curator or DataSource>
Homo sapiens

> <Ki (nM)>


> <IC50 (nM)>
 51

> <Kd (nM)>


> <EC50 (nM)>


> <kon (M-1-s-1)>


> <koff (s-1)>


> <pH>


> <Temp C>


> <Curation/DataSource>
ChEMBL

> <Article DOI>
10.1021/jm5005144

> <PMID>
24785465

> <PubChem AID>


> <Patent Number>


> <Authors>
Song, Z; Yang, Y; Liu, Z; Peng, X; Guo, J; Yang, X; Wu, K; Ai, J; Ding, J; Geng, M; Zhang, A

> <Institution>
Chinese Academy of Sciences

> <Link to Ligand in BindingDB>
http://www.bindingdb.org/bind/chemsearch/marvin/MolStructure.jsp?monomerid=50044466

> <Link to Ligand-Target Pair in BindingDB>
http://www.bindingdb.org/jsp/dbsearch/PrimarySearch_ki.jsp?energyterm=kJ/mole&tag=pol&polymerid=5809&target=ALK+tyrosine+kinase+receptor&column=ki&startPg=0&Increment=50&submit=Search

> <Link to Ligand-Target Pair in BindingDB>
http://www.bindingdb.org/jsp/dbsearch/PrimarySearch_ki.jsp?energyterm=kJ/mole&tag=r21&monomerid=50044466&enzyme=ALK+tyrosine+kinase+receptor&column=ki&startPg=0&Increment=50&submit=Search

> <Ligand HET ID in PDB>


> <PDB ID(s) for Ligand-Target Complex>


> <PubChem CID>
118722231

> <PubChem SID>
313068212

> <ChEBI ID of Ligand>


> <ChEMBL ID of Ligand>
CHEMBL3357461

> <DrugBank ID of Ligand>


> <IUPHAR_GRAC ID of Ligand>


> <KEGG ID of Ligand>


> <ZINC ID of Ligand>


> <Number of Protein Chains in Target (>1 implies a multichain complex)>
1

> <BindingDB Target Chain Sequence>
MGAIGLLWLLPLLLSTAAVGSGMGTGQRAGSPAAGPPLQPREPLSYSRLQRKSLAVDFVVPSLFRVYARDLLLPPSSSELKAGRPEARGSLALDCAPLLRLLGPAPGVSWTAGSPAPAEARTLSRVLKGGSVRKLRRAKQLVLELGEEAILEGCVGPPGEAAVGLLQFNLSELFSWWIRQGEGRLRIRLMPEKKASEVGREGRLSAAIRASQPRLLFQIFGTGHSSLESPTNMPSPSPDYFTWNLTWIMKDSFPFLSHRSRYGLECSFDFPCELEYSPPLHDLRNQSWSWRRIPSEEASQMDLLDGPGAERSKEMPRGSFLLLNTSADSKHTILSPWMRSSSEHCTLAVSVHRHLQPSGRYIAQLLPHNEAAREILLMPTPGKHGWTVLQGRIGRPDNPFRVALEYISSGNRSLSAVDFFALKNCSEGTSPGSKMALQSSFTCWNGTVLQLGQACDFHQDCAQGEDESQMCRKLPVGFYCNFEDGFCGWTQGTLSPHTPQWQVRTLKDARFQDHQDHALLLSTTDVPASESATVTSATFPAPIKSSPCELRMSWLIRGVLRGNVSLVLVENKTGKEQGRMVWHVAAYEGLSLWQWMVLPLLDVSDRFWLQMVAWWGQGSRAIVAFDNISISLDCYLTISGEDKILQNTAPKSRNLFERNPNKELKPGENSPRQTPIFDPTVHWLFTTCGASGPHGPTQAQCNNAYQNSNLSVEVGSEGPLKGIQIWKVPATDTYSISGYGAAGGKGGKNTMMRSHGVSVLGIFNLEKDDMLYILVGQQGEDACPSTNQLIQKVCIGENNVIEEEIRVNRSVHEWAGGGGGGGGATYVFKMKDGVPVPLIIAAGGGGRAYGAKTDTFHPERLENNSSVLGLNGNSGAAGGGGGWNDNTSLLWAGKSLQEGATGGHSCPQAMKKWGWETRGGFGGGGGGCSSGGGGGGYIGGNAASNNDPEMDGEDGVSFISPLGILYTPALKVMEGHGEVNIKHYLNCSHCEVDECHMDPESHKVICFCDHGTVLAEDGVSCIVSPTPEPHLPLSLILSVVTSALVAALVLAFSGIMIVYRRKHQELQAMQMELQSPEYKLSKLRTSTIMTDYNPNYCFAGKTSSISDLKEVPRKNITLIRGLGHGAFGEVYEGQVSGMPNDPSPLQVAVKTLPEVCSEQDELDFLMEALIISKFNHQNIVRCIGVSLQSLPRFILLELMAGGDLKSFLRETRPRPSQPSSLAMLDLLHVARDIACGCQYLEENHFIHRDIAARNCLLTCPGPGRVAKIGDFGMARDIYRASYYRKGGCAMLPVKWMPPEAFMEGIFTSKTDTWSFGVLLWEIFSLGYMPYPSKSNQEVLEFVTSGGRMDPPKNCPGPVYRIMTQCWQHQPEDRPNFAIILERIEYCTQDPDVINTALPIEYGPLVEEEEKVPVRPKDPEGVPPLLVSQQAKREEERSPAAPPPLPTTSSGKAAKKPTAAEISVRVPRGPAVEGGHVNMAFSQSNPPSELHKVHGSRNKPTSLWNPTYGSWFTEKPTKKNNPIAKKEPHDRGNLGLEGSCTVPPNVATGRLPGASLLLEPSSLTANMKEVPLFRLRHFPCGNVNYGYQQQGLPLEAATAPGAGHYEDTILKSKNSMNQPGP

> <PDB ID(s) of Target Chain>
2XB7,2XBA,3AOX,5FTO,5FTQ,6E0R,6EBW,6EDL,6MX8

> <UniProt (SwissProt) Recommended Name of Target Chain>
ALK tyrosine kinase receptor

> <UniProt (SwissProt) Entry Name of Target Chain>
ALK_HUMAN

> <UniProt (SwissProt) Primary ID of Target Chain>
Q9UM73

> <UniProt (SwissProt) Secondary ID(s) of Target Chain>
Q4ZFX9,Q53QQ6,Q53RZ4,Q59FI3,Q9Y4K6

> <UniProt (SwissProt) Alternative ID(s) of Target Chain>


> <UniProt (TrEMBL) Submitted Name of Target Chain>


> <UniProt (TrEMBL) Entry Name of Target Chain>


> <UniProt (TrEMBL) Primary ID of Target Chain>


> <UniProt (TrEMBL) Secondary ID(s) of Target Chain>


> <UniProt (TrEMBL) Alternative ID(s) of Target Chain>


$$$$
BindingDB_50044467_mol_1

Vconf v2.0 Academic SN VC001-00000579
 39 43  0  0  0  0  0  0  0  0999 V2000
   22.6239   -5.0280    0.0000 C   0  0  0  0  0  0  0  0  0  0  0
   22.6363   -4.2044    0.0000 C   0  0  0  0  0  0  0  0  0  0  0
   23.3573   -3.8032    0.0000 O   0  0  0  0  0  0  0  0  0  0  0
   21.9320   -3.7817    0.0000 N   0  0  0  0  0  0  0  0  0  0  0
   21.2110   -4.1828    0.0000 C   0  0  0  0  0  0  0  0  0  0  0
   20.5025   -3.7601    0.0000 C   0  0  0  0  0  0  0  0  0  0  0
   19.7815   -4.1611    0.0000 C   0  0  0  0  0  0  0  0  0  0  0
   19.7691   -4.9848    0.0000 C   0  0  0  0  0  0  0  0  0  0  0
   20.4776   -5.4075    0.0000 C   0  0  0  0  0  0  0  0  0  0  0
   21.1986   -5.0065    0.0000 C   0  0  0  0  0  0  0  0  0  0  0
   19.0772   -3.7385    0.0000 N   0  0  0  0  0  0  0  0  0  0  0
   18.3562   -4.1395    0.0000 C   0  0  0  0  0  0  0  0  0  0  0
   17.6518   -3.7169    0.0000 N   0  0  0  0  0  0  0  0  0  0  0
   16.9308   -4.1180    0.0000 C   0  0  0  0  0  0  0  0  0  0  0
   16.9184   -4.9417    0.0000 C   0  0  0  0  0  0  0  0  0  0  0
   17.6269   -5.3644    0.0000 C   0  0  0  0  0  0  0  0  0  0  0
   18.3438   -4.9632    0.0000 N   0  0  0  0  0  0  0  0  0  0  0
   16.2223   -3.6953    0.0000 N   0  0  0  0  0  0  0  0  0  0  0
   15.5056   -4.0964    0.0000 C   0  0  0  0  0  0  0  0  0  0  0
   14.7970   -3.6737    0.0000 C   0  0  0  0  0  0  0  0  0  0  0
   14.0760   -4.0747    0.0000 C   0  0  0  0  0  0  0  0  0  0  0
   14.0636   -4.8984    0.0000 C   0  0  0  0  0  0  0  0  0  0  0
   14.7721   -5.3211    0.0000 C   0  0  0  0  0  0  0  0  0  0  0
   15.4931   -4.9201    0.0000 C   0  0  0  0  0  0  0  0  0  0  0
   14.8095   -2.8500    0.0000 S   0  0  0  0  0  0  0  0  0  0  0
   15.6332   -2.8625    0.0000 O   0  0  0  0  0  0  0  0  0  0  0
   14.1058   -2.4224    0.0000 C   0  0  0  0  0  0  0  0  0  0  0
   13.3848   -2.8234    0.0000 C   0  0  0  0  0  0  0  0  0  0  0
   14.1206   -1.5975    0.0000 C   0  0  0  0  0  0  0  0  0  0  0
   16.1974   -5.3427    0.0000 Cl  0  0  0  0  0  0  0  0  0  0  0
   15.2155   -2.1302    0.0000 O   0  0  0  0  0  0  0  0  0  0  0
   23.3310   -5.4507    0.0000 N   0  0  0  0  0  0  0  0  0  0  0
   23.3140   -6.2750    0.0000 C   0  0  0  0  0  0  0  0  0  0  0
   24.0170   -6.6975    0.0000 C   0  0  0  0  0  0  0  0  0  0  0
   24.7390   -6.3000    0.0000 C   0  0  0  0  0  0  0  0  0  0  0
   24.7534   -5.4754    0.0000 C   0  0  0  0  0  0  0  0  0  0  0
   24.0459   -5.0482    0.0000 C   0  0  0  0  0  0  0  0  0  0  0
   23.8279   -5.8415    0.0000 C   0  0  0  0  0  0  0  0  0  0  0
   25.4445   -6.7253    0.0000 O   0  0  0  0  0  0  0  0  0  0  0
  2  3  2  0  0  0  0
  2  4  1  0  0  0  0
  1  2  1  0  0  0  0
  5  6  4  0  0  0  0
  6  7  4  0  0  0  0
  7  8  4  0  0  0  0
  8  9  4  0  0  0  0
  9 10  4  0  0  0  0
  5 10  4  0  0  0  0
 12 13  4  0  0  0  0
 13 14  4  0  0  0  0
 14 15  4  0  0  0  0
 15 16  4  0  0  0  0
 16 17  4  0  0  0  0
 12 17  4  0  0  0  0
 19 20  4  0  0  0  0
 20 21  4  0  0  0  0
 21 22  4  0  0  0  0
 22 23  4  0  0  0  0
 23 24  4  0  0  0  0
 19 24  4  0  0  0  0
 25 26  2  0  0  0  0
 27 28  1  0  0  0  0
 27 29  1  0  0  0  0
 25 27  1  0  0  0  0
 20 25  1  0  0  0  0
 18 19  1  0  0  0  0
 14 18  1  0  0  0  0
 15 30  1  0  0  0  0
 11 12  1  0  0  0  0
  7 11  1  0  0  0  0
  4  5  1  0  0  0  0
 25 31  2  0  0  0  0
  1 32  1  0  0  0  0
 32 33  1  0  0  0  0
 32 37  1  0  0  0  0
 33 34  1  0  0  0  0
 34 35  1  0  0  0  0
 35 36  1  0  0  0  0
 36 37  1  0  0  0  0
 37 38  1  0  0  0  0
 38 34  1  0  0  0  0
 35 39  1  0  0  0  0
M  END
> <From>
www.bindingDB.org

> <BindingDB Reactant_set_id>
50266119

> <Ligand InChI>
InChI=1S/C27H31ClN6O4S/c1-16(2)39(37,38)24-9-4-3-8-22(24)32-26-21(28)13-29-27(33-26)31-19-7-5-6-18(11-19)30-25(36)15-34-14-17-10-20(34)12-23(17)35/h3-9,11,13,16-17,20,23,35H,10,12,14-15H2,1-2H3,(H,30,36)(H2,29,31,32,33)

> <Ligand InChI Key>
XLCWUIJQDPUYAW-UHFFFAOYSA-N

> <BindingDB MonomerID>
50044467

> <BindingDB Ligand Name>
CHEMBL3357462

> <Target Name Assigned by Curator or DataSource>
ALK tyrosine kinase receptor

> <Target Source Organism According to Curator or DataSource>
Homo sapiens

> <Ki (nM)>


> <IC50 (nM)>
 3.0

> <Kd (nM)>


> <EC50 (nM)>


> <kon (M-1-s-1)>


> <koff (s-1)>


> <pH>


> <Temp C>


> <Curation/DataSource>
ChEMBL

> <Article DOI>
10.1021/jm5005144

> <PMID>
24785465

> <PubChem AID>


> <Patent Number>


> <Authors>
Song, Z; Yang, Y; Liu, Z; Peng, X; Guo, J; Yang, X; Wu, K; Ai, J; Ding, J; Geng, M; Zhang, A

> <Institution>
Chinese Academy of Sciences

> <Link to Ligand in BindingDB>
http://www.bindingdb.org/bind/chemsearch/marvin/MolStructure.jsp?monomerid=50044467

> <Link to Ligand-Target Pair in BindingDB>
http://www.bindingdb.org/jsp/dbsearch/PrimarySearch_ki.jsp?energyterm=kJ/mole&tag=pol&polymerid=5809&target=ALK+tyrosine+kinase+receptor&column=ki&startPg=0&Increment=50&submit=Search

> <Link to Ligand-Target Pair in BindingDB>
http://www.bindingdb.org/jsp/dbsearch/PrimarySearch_ki.jsp?energyterm=kJ/mole&tag=r21&monomerid=50044467&enzyme=ALK+tyrosine+kinase+receptor&column=ki&startPg=0&Increment=50&submit=Search

> <Ligand HET ID in PDB>


> <PDB ID(s) for Ligand-Target Complex>


> <PubChem CID>
118722232

> <PubChem SID>
313068213

> <ChEBI ID of Ligand>


> <ChEMBL ID of Ligand>
CHEMBL3357462

> <DrugBank ID of Ligand>


> <IUPHAR_GRAC ID of Ligand>


> <KEGG ID of Ligand>


> <ZINC ID of Ligand>


> <Number of Protein Chains in Target (>1 implies a multichain complex)>
1

> <BindingDB Target Chain Sequence>
MGAIGLLWLLPLLLSTAAVGSGMGTGQRAGSPAAGPPLQPREPLSYSRLQRKSLAVDFVVPSLFRVYARDLLLPPSSSELKAGRPEARGSLALDCAPLLRLLGPAPGVSWTAGSPAPAEARTLSRVLKGGSVRKLRRAKQLVLELGEEAILEGCVGPPGEAAVGLLQFNLSELFSWWIRQGEGRLRIRLMPEKKASEVGREGRLSAAIRASQPRLLFQIFGTGHSSLESPTNMPSPSPDYFTWNLTWIMKDSFPFLSHRSRYGLECSFDFPCELEYSPPLHDLRNQSWSWRRIPSEEASQMDLLDGPGAERSKEMPRGSFLLLNTSADSKHTILSPWMRSSSEHCTLAVSVHRHLQPSGRYIAQLLPHNEAAREILLMPTPGKHGWTVLQGRIGRPDNPFRVALEYISSGNRSLSAVDFFALKNCSEGTSPGSKMALQSSFTCWNGTVLQLGQACDFHQDCAQGEDESQMCRKLPVGFYCNFEDGFCGWTQGTLSPHTPQWQVRTLKDARFQDHQDHALLLSTTDVPASESATVTSATFPAPIKSSPCELRMSWLIRGVLRGNVSLVLVENKTGKEQGRMVWHVAAYEGLSLWQWMVLPLLDVSDRFWLQMVAWWGQGSRAIVAFDNISISLDCYLTISGEDKILQNTAPKSRNLFERNPNKELKPGENSPRQTPIFDPTVHWLFTTCGASGPHGPTQAQCNNAYQNSNLSVEVGSEGPLKGIQIWKVPATDTYSISGYGAAGGKGGKNTMMRSHGVSVLGIFNLEKDDMLYILVGQQGEDACPSTNQLIQKVCIGENNVIEEEIRVNRSVHEWAGGGGGGGGATYVFKMKDGVPVPLIIAAGGGGRAYGAKTDTFHPERLENNSSVLGLNGNSGAAGGGGGWNDNTSLLWAGKSLQEGATGGHSCPQAMKKWGWETRGGFGGGGGGCSSGGGGGGYIGGNAASNNDPEMDGEDGVSFISPLGILYTPALKVMEGHGEVNIKHYLNCSHCEVDECHMDPESHKVICFCDHGTVLAEDGVSCIVSPTPEPHLPLSLILSVVTSALVAALVLAFSGIMIVYRRKHQELQAMQMELQSPEYKLSKLRTSTIMTDYNPNYCFAGKTSSISDLKEVPRKNITLIRGLGHGAFGEVYEGQVSGMPNDPSPLQVAVKTLPEVCSEQDELDFLMEALIISKFNHQNIVRCIGVSLQSLPRFILLELMAGGDLKSFLRETRPRPSQPSSLAMLDLLHVARDIACGCQYLEENHFIHRDIAARNCLLTCPGPGRVAKIGDFGMARDIYRASYYRKGGCAMLPVKWMPPEAFMEGIFTSKTDTWSFGVLLWEIFSLGYMPYPSKSNQEVLEFVTSGGRMDPPKNCPGPVYRIMTQCWQHQPEDRPNFAIILERIEYCTQDPDVINTALPIEYGPLVEEEEKVPVRPKDPEGVPPLLVSQQAKREEERSPAAPPPLPTTSSGKAAKKPTAAEISVRVPRGPAVEGGHVNMAFSQSNPPSELHKVHGSRNKPTSLWNPTYGSWFTEKPTKKNNPIAKKEPHDRGNLGLEGSCTVPPNVATGRLPGASLLLEPSSLTANMKEVPLFRLRHFPCGNVNYGYQQQGLPLEAATAPGAGHYEDTILKSKNSMNQPGP

> <PDB ID(s) of Target Chain>
2XB7,2XBA,3AOX,5FTO,5FTQ,6E0R,6EBW,6EDL,6MX8

> <UniProt (SwissProt) Recommended Name of Target Chain>
ALK tyrosine kinase receptor

> <UniProt (SwissProt) Entry Name of Target Chain>
ALK_HUMAN

> <UniProt (SwissProt) Primary ID of Target Chain>
Q9UM73

> <UniProt (SwissProt) Secondary ID(s) of Target Chain>
Q4ZFX9,Q53QQ6,Q53RZ4,Q59FI3,Q9Y4K6

> <UniProt (SwissProt) Alternative ID(s) of Target Chain>


> <UniProt (TrEMBL) Submitted Name of Target Chain>


> <UniProt (TrEMBL) Entry Name of Target Chain>


> <UniProt (TrEMBL) Primary ID of Target Chain>


> <UniProt (TrEMBL) Secondary ID(s) of Target Chain>


> <UniProt (TrEMBL) Alternative ID(s) of Target Chain>


$$$$
BindingDB_50044468_mol_1

Vconf v2.0 Academic SN VC001-00000579
 39 43  0  0  0  0  0  0  0  0999 V2000
   32.5566   -4.4061    0.0000 C   0  0  0  0  0  0  0  0  0  0  0
   32.5691   -3.5812    0.0000 C   0  0  0  0  0  0  0  0  0  0  0
   33.2911   -3.1796    0.0000 O   0  0  0  0  0  0  0  0  0  0  0
   31.8637   -3.1580    0.0000 N   0  0  0  0  0  0  0  0  0  0  0
   31.1417   -3.5596    0.0000 C   0  0  0  0  0  0  0  0  0  0  0
   30.4321   -3.1364    0.0000 C   0  0  0  0  0  0  0  0  0  0  0
   29.7101   -3.5380    0.0000 C   0  0  0  0  0  0  0  0  0  0  0
   29.6977   -4.3629    0.0000 C   0  0  0  0  0  0  0  0  0  0  0
   30.4072   -4.7862    0.0000 C   0  0  0  0  0  0  0  0  0  0  0
   31.1292   -4.3845    0.0000 C   0  0  0  0  0  0  0  0  0  0  0
   29.0047   -3.1148    0.0000 N   0  0  0  0  0  0  0  0  0  0  0
   28.2827   -3.5164    0.0000 C   0  0  0  0  0  0  0  0  0  0  0
   27.5773   -3.0932    0.0000 N   0  0  0  0  0  0  0  0  0  0  0
   26.8553   -3.4948    0.0000 C   0  0  0  0  0  0  0  0  0  0  0
   26.8429   -4.3197    0.0000 C   0  0  0  0  0  0  0  0  0  0  0
   27.5524   -4.7430    0.0000 C   0  0  0  0  0  0  0  0  0  0  0
   28.2703   -4.3413    0.0000 N   0  0  0  0  0  0  0  0  0  0  0
   26.1458   -3.0715    0.0000 N   0  0  0  0  0  0  0  0  0  0  0
   25.4280   -3.4732    0.0000 C   0  0  0  0  0  0  0  0  0  0  0
   24.7184   -3.0499    0.0000 C   0  0  0  0  0  0  0  0  0  0  0
   23.9963   -3.4515    0.0000 C   0  0  0  0  0  0  0  0  0  0  0
   23.9839   -4.2764    0.0000 C   0  0  0  0  0  0  0  0  0  0  0
   24.6934   -4.6997    0.0000 C   0  0  0  0  0  0  0  0  0  0  0
   25.4155   -4.2981    0.0000 C   0  0  0  0  0  0  0  0  0  0  0
   24.7309   -2.2250    0.0000 S   0  0  0  0  0  0  0  0  0  0  0
   25.5558   -2.2375    0.0000 O   0  0  0  0  0  0  0  0  0  0  0
   24.0262   -1.7968    0.0000 C   0  0  0  0  0  0  0  0  0  0  0
   23.3041   -2.1983    0.0000 C   0  0  0  0  0  0  0  0  0  0  0
   24.0409   -0.9707    0.0000 C   0  0  0  0  0  0  0  0  0  0  0
   26.1208   -4.7213    0.0000 Cl  0  0  0  0  0  0  0  0  0  0  0
   25.1374   -1.5041    0.0000 O   0  0  0  0  0  0  0  0  0  0  0
   33.2647   -4.8294    0.0000 N   0  0  0  0  0  0  0  0  0  0  0
   33.3340   -5.6488    0.0000 C   0  0  0  0  0  0  0  0  0  0  0
   34.1381   -5.8312    0.0000 C   0  0  0  0  0  0  0  0  0  0  0
   34.0188   -4.5031    0.0000 C   0  0  0  0  0  0  0  0  0  0  0
   34.5586   -5.1220    0.0000 C   0  0  0  0  0  0  0  0  0  0  0
   35.3140   -4.7999    0.0000 C   0  0  0  0  0  0  0  0  0  0  0
   35.2412   -3.9819    0.0000 N   0  0  0  0  0  0  0  0  0  0  0
   34.4407   -3.7985    0.0000 C   0  0  0  0  0  0  0  0  0  0  0
  2  3  2  0  0  0  0
  2  4  1  0  0  0  0
  1  2  1  0  0  0  0
  5  6  4  0  0  0  0
  6  7  4  0  0  0  0
  7  8  4  0  0  0  0
  8  9  4  0  0  0  0
  9 10  4  0  0  0  0
  5 10  4  0  0  0  0
 12 13  4  0  0  0  0
 13 14  4  0  0  0  0
 14 15  4  0  0  0  0
 15 16  4  0  0  0  0
 16 17  4  0  0  0  0
 12 17  4  0  0  0  0
 19 20  4  0  0  0  0
 20 21  4  0  0  0  0
 21 22  4  0  0  0  0
 22 23  4  0  0  0  0
 23 24  4  0  0  0  0
 19 24  4  0  0  0  0
 25 26  2  0  0  0  0
 27 28  1  0  0  0  0
 27 29  1  0  0  0  0
 25 27  1  0  0  0  0
 20 25  1  0  0  0  0
 18 19  1  0  0  0  0
 14 18  1  0  0  0  0
 15 30  1  0  0  0  0
 11 12  1  0  0  0  0
  7 11  1  0  0  0  0
  4  5  1  0  0  0  0
 25 31  2  0  0  0  0
  1 32  1  0  0  0  0
 32 33  1  0  0  0  0
 33 34  1  0  0  0  0
 35 32  1  0  0  0  0
 36 34  1  0  0  0  0
 35 36  1  0  0  0  0
 36 37  1  0  0  0  0
 37 38  1  0  0  0  0
 38 39  1  0  0  0  0
 39 35  1  0  0  0  0
M  END
> <From>
www.bindingDB.org

> <BindingDB Reactant_set_id>
50266121

> <Ligand InChI>
InChI=1S/C27H32ClN7O3S/c1-17(2)39(37,38)24-9-4-3-8-22(24)33-26-21(28)14-30-27(34-26)32-20-7-5-6-19(12-20)31-25(36)16-35-11-10-18-13-29-15-23(18)35/h3-9,12,14,17-18,23,29H,10-11,13,15-16H2,1-2H3,(H,31,36)(H2,30,32,33,34)

> <Ligand InChI Key>
HVZHUYCJAOSSBB-UHFFFAOYSA-N

> <BindingDB MonomerID>
50044468

> <BindingDB Ligand Name>
CHEMBL3357463

> <Target Name Assigned by Curator or DataSource>
ALK tyrosine kinase receptor

> <Target Source Organism According to Curator or DataSource>
Homo sapiens

> <Ki (nM)>


> <IC50 (nM)>
 2.3

> <Kd (nM)>


> <EC50 (nM)>


> <kon (M-1-s-1)>


> <koff (s-1)>


> <pH>


> <Temp C>


> <Curation/DataSource>
ChEMBL

> <Article DOI>
10.1021/jm5005144

> <PMID>
24785465

> <PubChem AID>


> <Patent Number>


> <Authors>
Song, Z; Yang, Y; Liu, Z; Peng, X; Guo, J; Yang, X; Wu, K; Ai, J; Ding, J; Geng, M; Zhang, A

> <Institution>
Chinese Academy of Sciences

> <Link to Ligand in BindingDB>
http://www.bindingdb.org/bind/chemsearch/marvin/MolStructure.jsp?monomerid=50044468

> <Link to Ligand-Target Pair in BindingDB>
http://www.bindingdb.org/jsp/dbsearch/PrimarySearch_ki.jsp?energyterm=kJ/mole&tag=pol&polymerid=5809&target=ALK+tyrosine+kinase+receptor&column=ki&startPg=0&Increment=50&submit=Search

> <Link to Ligand-Target Pair in BindingDB>
http://www.bindingdb.org/jsp/dbsearch/PrimarySearch_ki.jsp?energyterm=kJ/mole&tag=r21&monomerid=50044468&enzyme=ALK+tyrosine+kinase+receptor&column=ki&startPg=0&Increment=50&submit=Search

> <Ligand HET ID in PDB>


> <PDB ID(s) for Ligand-Target Complex>


> <PubChem CID>
118722233

> <PubChem SID>
313068214

> <ChEBI ID of Ligand>


> <ChEMBL ID of Ligand>
CHEMBL3357463

> <DrugBank ID of Ligand>


> <IUPHAR_GRAC ID of Ligand>


> <KEGG ID of Ligand>


> <ZINC ID of Ligand>


> <Number of Protein Chains in Target (>1 implies a multichain complex)>
1

> <BindingDB Target Chain Sequence>
MGAIGLLWLLPLLLSTAAVGSGMGTGQRAGSPAAGPPLQPREPLSYSRLQRKSLAVDFVVPSLFRVYARDLLLPPSSSELKAGRPEARGSLALDCAPLLRLLGPAPGVSWTAGSPAPAEARTLSRVLKGGSVRKLRRAKQLVLELGEEAILEGCVGPPGEAAVGLLQFNLSELFSWWIRQGEGRLRIRLMPEKKASEVGREGRLSAAIRASQPRLLFQIFGTGHSSLESPTNMPSPSPDYFTWNLTWIMKDSFPFLSHRSRYGLECSFDFPCELEYSPPLHDLRNQSWSWRRIPSEEASQMDLLDGPGAERSKEMPRGSFLLLNTSADSKHTILSPWMRSSSEHCTLAVSVHRHLQPSGRYIAQLLPHNEAAREILLMPTPGKHGWTVLQGRIGRPDNPFRVALEYISSGNRSLSAVDFFALKNCSEGTSPGSKMALQSSFTCWNGTVLQLGQACDFHQDCAQGEDESQMCRKLPVGFYCNFEDGFCGWTQGTLSPHTPQWQVRTLKDARFQDHQDHALLLSTTDVPASESATVTSATFPAPIKSSPCELRMSWLIRGVLRGNVSLVLVENKTGKEQGRMVWHVAAYEGLSLWQWMVLPLLDVSDRFWLQMVAWWGQGSRAIVAFDNISISLDCYLTISGEDKILQNTAPKSRNLFERNPNKELKPGENSPRQTPIFDPTVHWLFTTCGASGPHGPTQAQCNNAYQNSNLSVEVGSEGPLKGIQIWKVPATDTYSISGYGAAGGKGGKNTMMRSHGVSVLGIFNLEKDDMLYILVGQQGEDACPSTNQLIQKVCIGENNVIEEEIRVNRSVHEWAGGGGGGGGATYVFKMKDGVPVPLIIAAGGGGRAYGAKTDTFHPERLENNSSVLGLNGNSGAAGGGGGWNDNTSLLWAGKSLQEGATGGHSCPQAMKKWGWETRGGFGGGGGGCSSGGGGGGYIGGNAASNNDPEMDGEDGVSFISPLGILYTPALKVMEGHGEVNIKHYLNCSHCEVDECHMDPESHKVICFCDHGTVLAEDGVSCIVSPTPEPHLPLSLILSVVTSALVAALVLAFSGIMIVYRRKHQELQAMQMELQSPEYKLSKLRTSTIMTDYNPNYCFAGKTSSISDLKEVPRKNITLIRGLGHGAFGEVYEGQVSGMPNDPSPLQVAVKTLPEVCSEQDELDFLMEALIISKFNHQNIVRCIGVSLQSLPRFILLELMAGGDLKSFLRETRPRPSQPSSLAMLDLLHVARDIACGCQYLEENHFIHRDIAARNCLLTCPGPGRVAKIGDFGMARDIYRASYYRKGGCAMLPVKWMPPEAFMEGIFTSKTDTWSFGVLLWEIFSLGYMPYPSKSNQEVLEFVTSGGRMDPPKNCPGPVYRIMTQCWQHQPEDRPNFAIILERIEYCTQDPDVINTALPIEYGPLVEEEEKVPVRPKDPEGVPPLLVSQQAKREEERSPAAPPPLPTTSSGKAAKKPTAAEISVRVPRGPAVEGGHVNMAFSQSNPPSELHKVHGSRNKPTSLWNPTYGSWFTEKPTKKNNPIAKKEPHDRGNLGLEGSCTVPPNVATGRLPGASLLLEPSSLTANMKEVPLFRLRHFPCGNVNYGYQQQGLPLEAATAPGAGHYEDTILKSKNSMNQPGP

> <PDB ID(s) of Target Chain>
2XB7,2XBA,3AOX,5FTO,5FTQ,6E0R,6EBW,6EDL,6MX8

> <UniProt (SwissProt) Recommended Name of Target Chain>
ALK tyrosine kinase receptor

> <UniProt (SwissProt) Entry Name of Target Chain>
ALK_HUMAN

> <UniProt (SwissProt) Primary ID of Target Chain>
Q9UM73

> <UniProt (SwissProt) Secondary ID(s) of Target Chain>
Q4ZFX9,Q53QQ6,Q53RZ4,Q59FI3,Q9Y4K6

> <UniProt (SwissProt) Alternative ID(s) of Target Chain>


> <UniProt (TrEMBL) Submitted Name of Target Chain>


> <UniProt (TrEMBL) Entry Name of Target Chain>


> <UniProt (TrEMBL) Primary ID of Target Chain>


> <UniProt (TrEMBL) Secondary ID(s) of Target Chain>


> <UniProt (TrEMBL) Alternative ID(s) of Target Chain>


$$$$
BindingDB_50044469_mol_1

Vconf v2.0 Academic SN VC001-00000579
 39 43  0  0  0  0  0  0  0  0999 V2000
   14.0355  -11.5892    0.0000 C   0  0  0  0  0  0  0  0  0  0  0
   14.0480  -10.7643    0.0000 C   0  0  0  0  0  0  0  0  0  0  0
   14.7700  -10.3627    0.0000 O   0  0  0  0  0  0  0  0  0  0  0
   13.3426  -10.3411    0.0000 N   0  0  0  0  0  0  0  0  0  0  0
   12.6206  -10.7427    0.0000 C   0  0  0  0  0  0  0  0  0  0  0
   11.9111  -10.3194    0.0000 C   0  0  0  0  0  0  0  0  0  0  0
   11.1891  -10.7210    0.0000 C   0  0  0  0  0  0  0  0  0  0  0
   11.1766  -11.5459    0.0000 C   0  0  0  0  0  0  0  0  0  0  0
   11.8862  -11.9692    0.0000 C   0  0  0  0  0  0  0  0  0  0  0
   12.6081  -11.5676    0.0000 C   0  0  0  0  0  0  0  0  0  0  0
   10.4837  -10.2978    0.0000 N   0  0  0  0  0  0  0  0  0  0  0
    9.7617  -10.6994    0.0000 C   0  0  0  0  0  0  0  0  0  0  0
    9.0564  -10.2762    0.0000 N   0  0  0  0  0  0  0  0  0  0  0
    8.3344  -10.6778    0.0000 C   0  0  0  0  0  0  0  0  0  0  0
    8.3218  -11.5027    0.0000 C   0  0  0  0  0  0  0  0  0  0  0
    9.0314  -11.9260    0.0000 C   0  0  0  0  0  0  0  0  0  0  0
    9.7492  -11.5243    0.0000 N   0  0  0  0  0  0  0  0  0  0  0
    7.6249  -10.2546    0.0000 N   0  0  0  0  0  0  0  0  0  0  0
    6.9070  -10.6562    0.0000 C   0  0  0  0  0  0  0  0  0  0  0
    6.1975  -10.2330    0.0000 C   0  0  0  0  0  0  0  0  0  0  0
    5.4755  -10.6346    0.0000 C   0  0  0  0  0  0  0  0  0  0  0
    5.4630  -11.4595    0.0000 C   0  0  0  0  0  0  0  0  0  0  0
    6.1726  -11.8827    0.0000 C   0  0  0  0  0  0  0  0  0  0  0
    6.8946  -11.4811    0.0000 C   0  0  0  0  0  0  0  0  0  0  0
    6.2100   -9.4081    0.0000 S   0  0  0  0  0  0  0  0  0  0  0
    7.0349   -9.4205    0.0000 O   0  0  0  0  0  0  0  0  0  0  0
    5.5053   -8.9798    0.0000 C   0  0  0  0  0  0  0  0  0  0  0
    4.7832   -9.3813    0.0000 C   0  0  0  0  0  0  0  0  0  0  0
    5.5200   -8.1539    0.0000 C   0  0  0  0  0  0  0  0  0  0  0
    7.5999  -11.9042    0.0000 Cl  0  0  0  0  0  0  0  0  0  0  0
    6.6164   -8.6873    0.0000 O   0  0  0  0  0  0  0  0  0  0  0
   14.7436  -12.0124    0.0000 N   0  0  0  0  0  0  0  0  0  0  0
   14.8129  -12.8318    0.0000 C   0  0  0  0  0  0  0  0  0  0  0
   15.4977  -11.6861    0.0000 C   0  0  0  0  0  0  0  0  0  0  0
   16.0405  -12.3074    0.0000 C   0  0  0  0  0  0  0  0  0  0  0
   15.6170  -13.0142    0.0000 C   0  0  0  0  0  0  0  0  0  0  0
   16.1583  -13.6354    0.0000 C   0  0  0  0  0  0  0  0  0  0  0
   16.9165  -13.3125    0.0000 N   0  0  0  0  0  0  0  0  0  0  0
   16.8435  -12.4918    0.0000 C   0  0  0  0  0  0  0  0  0  0  0
  2  3  2  0  0  0  0
  2  4  1  0  0  0  0
  1  2  1  0  0  0  0
  5  6  4  0  0  0  0
  6  7  4  0  0  0  0
  7  8  4  0  0  0  0
  8  9  4  0  0  0  0
  9 10  4  0  0  0  0
  5 10  4  0  0  0  0
 12 13  4  0  0  0  0
 13 14  4  0  0  0  0
 14 15  4  0  0  0  0
 15 16  4  0  0  0  0
 16 17  4  0  0  0  0
 12 17  4  0  0  0  0
 19 20  4  0  0  0  0
 20 21  4  0  0  0  0
 21 22  4  0  0  0  0
 22 23  4  0  0  0  0
 23 24  4  0  0  0  0
 19 24  4  0  0  0  0
 25 26  2  0  0  0  0
 27 28  1  0  0  0  0
 27 29  1  0  0  0  0
 25 27  1  0  0  0  0
 20 25  1  0  0  0  0
 18 19  1  0  0  0  0
 14 18  1  0  0  0  0
 15 30  1  0  0  0  0
 11 12  1  0  0  0  0
  7 11  1  0  0  0  0
  4  5  1  0  0  0  0
 25 31  2  0  0  0  0
  1 32  1  0  0  0  0
 32 33  1  0  0  0  0
 33 36  1  0  0  0  0
 35 34  1  0  0  0  0
 34 32  1  0  0  0  0
 35 36  1  0  0  0  0
 36 37  1  0  0  0  0
 37 38  1  0  0  0  0
 38 39  1  0  0  0  0
 39 35  1  0  0  0  0
M  END
> <From>
www.bindingDB.org

> <BindingDB Reactant_set_id>
50266122

> <Ligand InChI>
InChI=1S/C27H32ClN7O3S/c1-17(2)39(37,38)24-9-4-3-8-23(24)33-26-22(28)13-30-27(34-26)32-21-7-5-6-20(10-21)31-25(36)16-35-14-18-11-29-12-19(18)15-35/h3-10,13,17-19,29H,11-12,14-16H2,1-2H3,(H,31,36)(H2,30,32,33,34)

> <Ligand InChI Key>
WYRLDZNQPSAQEB-UHFFFAOYSA-N

> <BindingDB MonomerID>
50044469

> <BindingDB Ligand Name>
CHEMBL3357464

> <Target Name Assigned by Curator or DataSource>
ALK tyrosine kinase receptor

> <Target Source Organism According to Curator or DataSource>
Homo sapiens

> <Ki (nM)>


> <IC50 (nM)>
 5.5

> <Kd (nM)>


> <EC50 (nM)>


> <kon (M-1-s-1)>


> <koff (s-1)>


> <pH>


> <Temp C>


> <Curation/DataSource>
ChEMBL

> <Article DOI>
10.1021/jm5005144

> <PMID>
24785465

> <PubChem AID>


> <Patent Number>


> <Authors>
Song, Z; Yang, Y; Liu, Z; Peng, X; Guo, J; Yang, X; Wu, K; Ai, J; Ding, J; Geng, M; Zhang, A

> <Institution>
Chinese Academy of Sciences

> <Link to Ligand in BindingDB>
http://www.bindingdb.org/bind/chemsearch/marvin/MolStructure.jsp?monomerid=50044469

> <Link to Ligand-Target Pair in BindingDB>
http://www.bindingdb.org/jsp/dbsearch/PrimarySearch_ki.jsp?energyterm=kJ/mole&tag=pol&polymerid=5809&target=ALK+tyrosine+kinase+receptor&column=ki&startPg=0&Increment=50&submit=Search

> <Link to Ligand-Target Pair in BindingDB>
http://www.bindingdb.org/jsp/dbsearch/PrimarySearch_ki.jsp?energyterm=kJ/mole&tag=r21&monomerid=50044469&enzyme=ALK+tyrosine+kinase+receptor&column=ki&startPg=0&Increment=50&submit=Search

> <Ligand HET ID in PDB>


> <PDB ID(s) for Ligand-Target Complex>


> <PubChem CID>
118722234

> <PubChem SID>
313068215

> <ChEBI ID of Ligand>


> <ChEMBL ID of Ligand>
CHEMBL3357464

> <DrugBank ID of Ligand>


> <IUPHAR_GRAC ID of Ligand>


> <KEGG ID of Ligand>


> <ZINC ID of Ligand>


> <Number of Protein Chains in Target (>1 implies a multichain complex)>
1

> <BindingDB Target Chain Sequence>
MGAIGLLWLLPLLLSTAAVGSGMGTGQRAGSPAAGPPLQPREPLSYSRLQRKSLAVDFVVPSLFRVYARDLLLPPSSSELKAGRPEARGSLALDCAPLLRLLGPAPGVSWTAGSPAPAEARTLSRVLKGGSVRKLRRAKQLVLELGEEAILEGCVGPPGEAAVGLLQFNLSELFSWWIRQGEGRLRIRLMPEKKASEVGREGRLSAAIRASQPRLLFQIFGTGHSSLESPTNMPSPSPDYFTWNLTWIMKDSFPFLSHRSRYGLECSFDFPCELEYSPPLHDLRNQSWSWRRIPSEEASQMDLLDGPGAERSKEMPRGSFLLLNTSADSKHTILSPWMRSSSEHCTLAVSVHRHLQPSGRYIAQLLPHNEAAREILLMPTPGKHGWTVLQGRIGRPDNPFRVALEYISSGNRSLSAVDFFALKNCSEGTSPGSKMALQSSFTCWNGTVLQLGQACDFHQDCAQGEDESQMCRKLPVGFYCNFEDGFCGWTQGTLSPHTPQWQVRTLKDARFQDHQDHALLLSTTDVPASESATVTSATFPAPIKSSPCELRMSWLIRGVLRGNVSLVLVENKTGKEQGRMVWHVAAYEGLSLWQWMVLPLLDVSDRFWLQMVAWWGQGSRAIVAFDNISISLDCYLTISGEDKILQNTAPKSRNLFERNPNKELKPGENSPRQTPIFDPTVHWLFTTCGASGPHGPTQAQCNNAYQNSNLSVEVGSEGPLKGIQIWKVPATDTYSISGYGAAGGKGGKNTMMRSHGVSVLGIFNLEKDDMLYILVGQQGEDACPSTNQLIQKVCIGENNVIEEEIRVNRSVHEWAGGGGGGGGATYVFKMKDGVPVPLIIAAGGGGRAYGAKTDTFHPERLENNSSVLGLNGNSGAAGGGGGWNDNTSLLWAGKSLQEGATGGHSCPQAMKKWGWETRGGFGGGGGGCSSGGGGGGYIGGNAASNNDPEMDGEDGVSFISPLGILYTPALKVMEGHGEVNIKHYLNCSHCEVDECHMDPESHKVICFCDHGTVLAEDGVSCIVSPTPEPHLPLSLILSVVTSALVAALVLAFSGIMIVYRRKHQELQAMQMELQSPEYKLSKLRTSTIMTDYNPNYCFAGKTSSISDLKEVPRKNITLIRGLGHGAFGEVYEGQVSGMPNDPSPLQVAVKTLPEVCSEQDELDFLMEALIISKFNHQNIVRCIGVSLQSLPRFILLELMAGGDLKSFLRETRPRPSQPSSLAMLDLLHVARDIACGCQYLEENHFIHRDIAARNCLLTCPGPGRVAKIGDFGMARDIYRASYYRKGGCAMLPVKWMPPEAFMEGIFTSKTDTWSFGVLLWEIFSLGYMPYPSKSNQEVLEFVTSGGRMDPPKNCPGPVYRIMTQCWQHQPEDRPNFAIILERIEYCTQDPDVINTALPIEYGPLVEEEEKVPVRPKDPEGVPPLLVSQQAKREEERSPAAPPPLPTTSSGKAAKKPTAAEISVRVPRGPAVEGGHVNMAFSQSNPPSELHKVHGSRNKPTSLWNPTYGSWFTEKPTKKNNPIAKKEPHDRGNLGLEGSCTVPPNVATGRLPGASLLLEPSSLTANMKEVPLFRLRHFPCGNVNYGYQQQGLPLEAATAPGAGHYEDTILKSKNSMNQPGP

> <PDB ID(s) of Target Chain>
2XB7,2XBA,3AOX,5FTO,5FTQ,6E0R,6EBW,6EDL,6MX8

> <UniProt (SwissProt) Recommended Name of Target Chain>
ALK tyrosine kinase receptor

> <UniProt (SwissProt) Entry Name of Target Chain>
ALK_HUMAN

> <UniProt (SwissProt) Primary ID of Target Chain>
Q9UM73

> <UniProt (SwissProt) Secondary ID(s) of Target Chain>
Q4ZFX9,Q53QQ6,Q53RZ4,Q59FI3,Q9Y4K6

> <UniProt (SwissProt) Alternative ID(s) of Target Chain>


> <UniProt (TrEMBL) Submitted Name of Target Chain>


> <UniProt (TrEMBL) Entry Name of Target Chain>


> <UniProt (TrEMBL) Primary ID of Target Chain>


> <UniProt (TrEMBL) Secondary ID(s) of Target Chain>


> <UniProt (TrEMBL) Alternative ID(s) of Target Chain>


$$$$
BindingDB_50044470_mol_1

Vconf v2.0 Academic SN VC001-00000579
 36 39  0  0  0  0  0  0  0  0999 V2000
   24.5006  -10.7675    0.0000 C   0  0  0  0  0  0  0  0  0  0  0
   24.5131   -9.9436    0.0000 C   0  0  0  0  0  0  0  0  0  0  0
   25.2342   -9.5425    0.0000 O   0  0  0  0  0  0  0  0  0  0  0
   23.8086   -9.5209    0.0000 N   0  0  0  0  0  0  0  0  0  0  0
   23.0875   -9.9220    0.0000 C   0  0  0  0  0  0  0  0  0  0  0
   22.3789   -9.4993    0.0000 C   0  0  0  0  0  0  0  0  0  0  0
   21.6578   -9.9004    0.0000 C   0  0  0  0  0  0  0  0  0  0  0
   21.6453  -10.7242    0.0000 C   0  0  0  0  0  0  0  0  0  0  0
   22.3539  -11.1470    0.0000 C   0  0  0  0  0  0  0  0  0  0  0
   23.0750  -10.7459    0.0000 C   0  0  0  0  0  0  0  0  0  0  0
   20.9533   -9.4777    0.0000 N   0  0  0  0  0  0  0  0  0  0  0
   20.2322   -9.8788    0.0000 C   0  0  0  0  0  0  0  0  0  0  0
   19.5277   -9.4561    0.0000 N   0  0  0  0  0  0  0  0  0  0  0
   18.8066   -9.8573    0.0000 C   0  0  0  0  0  0  0  0  0  0  0
   18.7941  -10.6811    0.0000 C   0  0  0  0  0  0  0  0  0  0  0
   19.5028  -11.1038    0.0000 C   0  0  0  0  0  0  0  0  0  0  0
   20.2197  -10.7026    0.0000 N   0  0  0  0  0  0  0  0  0  0  0
   18.0979   -9.4345    0.0000 N   0  0  0  0  0  0  0  0  0  0  0
   17.3810   -9.8357    0.0000 C   0  0  0  0  0  0  0  0  0  0  0
   16.6723   -9.4130    0.0000 C   0  0  0  0  0  0  0  0  0  0  0
   15.9512   -9.8140    0.0000 C   0  0  0  0  0  0  0  0  0  0  0
   15.9387  -10.6379    0.0000 C   0  0  0  0  0  0  0  0  0  0  0
   16.6474  -11.0607    0.0000 C   0  0  0  0  0  0  0  0  0  0  0
   17.3685  -10.6596    0.0000 C   0  0  0  0  0  0  0  0  0  0  0
   16.6847   -8.5891    0.0000 S   0  0  0  0  0  0  0  0  0  0  0
   17.5086   -8.6015    0.0000 O   0  0  0  0  0  0  0  0  0  0  0
   15.9810   -8.1614    0.0000 C   0  0  0  0  0  0  0  0  0  0  0
   15.2598   -8.5625    0.0000 C   0  0  0  0  0  0  0  0  0  0  0
   15.9957   -7.3364    0.0000 C   0  0  0  0  0  0  0  0  0  0  0
   18.0729  -11.0823    0.0000 Cl  0  0  0  0  0  0  0  0  0  0  0
   17.0908   -7.8692    0.0000 O   0  0  0  0  0  0  0  0  0  0  0
   25.2079  -11.1902    0.0000 C   0  0  0  0  0  0  0  0  0  0  0
   25.2816  -12.0082    0.0000 C   0  0  0  0  0  0  0  0  0  0  0
   26.0849  -12.1917    0.0000 C   0  0  0  0  0  0  0  0  0  0  0
   26.5077  -11.4844    0.0000 C   0  0  0  0  0  0  0  0  0  0  0
   25.9655  -10.8639    0.0000 O   0  0  0  0  0  0  0  0  0  0  0
  2  3  2  0  0  0  0
  2  4  1  0  0  0  0
  1  2  1  0  0  0  0
  5  6  4  0  0  0  0
  6  7  4  0  0  0  0
  7  8  4  0  0  0  0
  8  9  4  0  0  0  0
  9 10  4  0  0  0  0
  5 10  4  0  0  0  0
 12 13  4  0  0  0  0
 13 14  4  0  0  0  0
 14 15  4  0  0  0  0
 15 16  4  0  0  0  0
 16 17  4  0  0  0  0
 12 17  4  0  0  0  0
 19 20  4  0  0  0  0
 20 21  4  0  0  0  0
 21 22  4  0  0  0  0
 22 23  4  0  0  0  0
 23 24  4  0  0  0  0
 19 24  4  0  0  0  0
 25 26  2  0  0  0  0
 27 28  1  0  0  0  0
 27 29  1  0  0  0  0
 25 27  1  0  0  0  0
 20 25  1  0  0  0  0
 18 19  1  0  0  0  0
 14 18  1  0  0  0  0
 15 30  1  0  0  0  0
 11 12  1  0  0  0  0
  7 11  1  0  0  0  0
  4  5  1  0  0  0  0
 25 31  2  0  0  0  0
  1 32  1  0  0  0  0
 32 33  4  0  0  0  0
 33 34  4  0  0  0  0
 34 35  4  0  0  0  0
 35 36  4  0  0  0  0
 36 32  4  0  0  0  0
M  END
> <From>
www.bindingDB.org

> <BindingDB Reactant_set_id>
50266124

> <Ligand InChI>
InChI=1S/C25H24ClN5O4S/c1-16(2)36(33,34)22-11-4-3-10-21(22)30-24-20(26)15-27-25(31-24)29-18-8-5-7-17(13-18)28-23(32)14-19-9-6-12-35-19/h3-13,15-16H,14H2,1-2H3,(H,28,32)(H2,27,29,30,31)

> <Ligand InChI Key>
AQRHXRWJOUUDKH-UHFFFAOYSA-N

> <BindingDB MonomerID>
50044470

> <BindingDB Ligand Name>
CHEMBL3357465

> <Target Name Assigned by Curator or DataSource>
ALK tyrosine kinase receptor

> <Target Source Organism According to Curator or DataSource>
Homo sapiens

> <Ki (nM)>


> <IC50 (nM)>
 32

> <Kd (nM)>


> <EC50 (nM)>


> <kon (M-1-s-1)>


> <koff (s-1)>


> <pH>


> <Temp C>


> <Curation/DataSource>
ChEMBL

> <Article DOI>
10.1021/jm5005144

> <PMID>
24785465

> <PubChem AID>


> <Patent Number>


> <Authors>
Song, Z; Yang, Y; Liu, Z; Peng, X; Guo, J; Yang, X; Wu, K; Ai, J; Ding, J; Geng, M; Zhang, A

> <Institution>
Chinese Academy of Sciences

> <Link to Ligand in BindingDB>
http://www.bindingdb.org/bind/chemsearch/marvin/MolStructure.jsp?monomerid=50044470

> <Link to Ligand-Target Pair in BindingDB>
http://www.bindingdb.org/jsp/dbsearch/PrimarySearch_ki.jsp?energyterm=kJ/mole&tag=pol&polymerid=5809&target=ALK+tyrosine+kinase+receptor&column=ki&startPg=0&Increment=50&submit=Search

> <Link to Ligand-Target Pair in BindingDB>
http://www.bindingdb.org/jsp/dbsearch/PrimarySearch_ki.jsp?energyterm=kJ/mole&tag=r21&monomerid=50044470&enzyme=ALK+tyrosine+kinase+receptor&column=ki&startPg=0&Increment=50&submit=Search

> <Ligand HET ID in PDB>


> <PDB ID(s) for Ligand-Target Complex>


> <PubChem CID>
118722235

> <PubChem SID>
313068216

> <ChEBI ID of Ligand>


> <ChEMBL ID of Ligand>
CHEMBL3357465

> <DrugBank ID of Ligand>


> <IUPHAR_GRAC ID of Ligand>


> <KEGG ID of Ligand>


> <ZINC ID of Ligand>


> <Number of Protein Chains in Target (>1 implies a multichain complex)>
1

> <BindingDB Target Chain Sequence>
MGAIGLLWLLPLLLSTAAVGSGMGTGQRAGSPAAGPPLQPREPLSYSRLQRKSLAVDFVVPSLFRVYARDLLLPPSSSELKAGRPEARGSLALDCAPLLRLLGPAPGVSWTAGSPAPAEARTLSRVLKGGSVRKLRRAKQLVLELGEEAILEGCVGPPGEAAVGLLQFNLSELFSWWIRQGEGRLRIRLMPEKKASEVGREGRLSAAIRASQPRLLFQIFGTGHSSLESPTNMPSPSPDYFTWNLTWIMKDSFPFLSHRSRYGLECSFDFPCELEYSPPLHDLRNQSWSWRRIPSEEASQMDLLDGPGAERSKEMPRGSFLLLNTSADSKHTILSPWMRSSSEHCTLAVSVHRHLQPSGRYIAQLLPHNEAAREILLMPTPGKHGWTVLQGRIGRPDNPFRVALEYISSGNRSLSAVDFFALKNCSEGTSPGSKMALQSSFTCWNGTVLQLGQACDFHQDCAQGEDESQMCRKLPVGFYCNFEDGFCGWTQGTLSPHTPQWQVRTLKDARFQDHQDHALLLSTTDVPASESATVTSATFPAPIKSSPCELRMSWLIRGVLRGNVSLVLVENKTGKEQGRMVWHVAAYEGLSLWQWMVLPLLDVSDRFWLQMVAWWGQGSRAIVAFDNISISLDCYLTISGEDKILQNTAPKSRNLFERNPNKELKPGENSPRQTPIFDPTVHWLFTTCGASGPHGPTQAQCNNAYQNSNLSVEVGSEGPLKGIQIWKVPATDTYSISGYGAAGGKGGKNTMMRSHGVSVLGIFNLEKDDMLYILVGQQGEDACPSTNQLIQKVCIGENNVIEEEIRVNRSVHEWAGGGGGGGGATYVFKMKDGVPVPLIIAAGGGGRAYGAKTDTFHPERLENNSSVLGLNGNSGAAGGGGGWNDNTSLLWAGKSLQEGATGGHSCPQAMKKWGWETRGGFGGGGGGCSSGGGGGGYIGGNAASNNDPEMDGEDGVSFISPLGILYTPALKVMEGHGEVNIKHYLNCSHCEVDECHMDPESHKVICFCDHGTVLAEDGVSCIVSPTPEPHLPLSLILSVVTSALVAALVLAFSGIMIVYRRKHQELQAMQMELQSPEYKLSKLRTSTIMTDYNPNYCFAGKTSSISDLKEVPRKNITLIRGLGHGAFGEVYEGQVSGMPNDPSPLQVAVKTLPEVCSEQDELDFLMEALIISKFNHQNIVRCIGVSLQSLPRFILLELMAGGDLKSFLRETRPRPSQPSSLAMLDLLHVARDIACGCQYLEENHFIHRDIAARNCLLTCPGPGRVAKIGDFGMARDIYRASYYRKGGCAMLPVKWMPPEAFMEGIFTSKTDTWSFGVLLWEIFSLGYMPYPSKSNQEVLEFVTSGGRMDPPKNCPGPVYRIMTQCWQHQPEDRPNFAIILERIEYCTQDPDVINTALPIEYGPLVEEEEKVPVRPKDPEGVPPLLVSQQAKREEERSPAAPPPLPTTSSGKAAKKPTAAEISVRVPRGPAVEGGHVNMAFSQSNPPSELHKVHGSRNKPTSLWNPTYGSWFTEKPTKKNNPIAKKEPHDRGNLGLEGSCTVPPNVATGRLPGASLLLEPSSLTANMKEVPLFRLRHFPCGNVNYGYQQQGLPLEAATAPGAGHYEDTILKSKNSMNQPGP

> <PDB ID(s) of Target Chain>
2XB7,2XBA,3AOX,5FTO,5FTQ,6E0R,6EBW,6EDL,6MX8

> <UniProt (SwissProt) Recommended Name of Target Chain>
ALK tyrosine kinase receptor

> <UniProt (SwissProt) Entry Name of Target Chain>
ALK_HUMAN

> <UniProt (SwissProt) Primary ID of Target Chain>
Q9UM73

> <UniProt (SwissProt) Secondary ID(s) of Target Chain>
Q4ZFX9,Q53QQ6,Q53RZ4,Q59FI3,Q9Y4K6

> <UniProt (SwissProt) Alternative ID(s) of Target Chain>


> <UniProt (TrEMBL) Submitted Name of Target Chain>


> <UniProt (TrEMBL) Entry Name of Target Chain>


> <UniProt (TrEMBL) Primary ID of Target Chain>


> <UniProt (TrEMBL) Secondary ID(s) of Target Chain>


> <UniProt (TrEMBL) Alternative ID(s) of Target Chain>


$$$$
BindingDB_50044471_mol_1

Vconf v2.0 Academic SN VC001-00000579
 40 44  0  0  0  0  0  0  0  0999 V2000
   33.8733  -10.1936    0.0000 C   0  0  0  0  0  0  0  0  0  0  0
   33.8857   -9.3687    0.0000 C   0  0  0  0  0  0  0  0  0  0  0
   34.6077   -8.9670    0.0000 O   0  0  0  0  0  0  0  0  0  0  0
   33.1803   -8.9454    0.0000 N   0  0  0  0  0  0  0  0  0  0  0
   32.4583   -9.3471    0.0000 C   0  0  0  0  0  0  0  0  0  0  0
   31.7488   -8.9238    0.0000 C   0  0  0  0  0  0  0  0  0  0  0
   31.0268   -9.3254    0.0000 C   0  0  0  0  0  0  0  0  0  0  0
   31.0143  -10.1503    0.0000 C   0  0  0  0  0  0  0  0  0  0  0
   31.7239  -10.5736    0.0000 C   0  0  0  0  0  0  0  0  0  0  0
   32.4459  -10.1720    0.0000 C   0  0  0  0  0  0  0  0  0  0  0
   30.3214   -8.9022    0.0000 N   0  0  0  0  0  0  0  0  0  0  0
   29.5994   -9.3038    0.0000 C   0  0  0  0  0  0  0  0  0  0  0
   28.8940   -8.8806    0.0000 N   0  0  0  0  0  0  0  0  0  0  0
   28.1720   -9.2822    0.0000 C   0  0  0  0  0  0  0  0  0  0  0
   28.1595  -10.1071    0.0000 C   0  0  0  0  0  0  0  0  0  0  0
   28.8691  -10.5304    0.0000 C   0  0  0  0  0  0  0  0  0  0  0
   29.5869  -10.1287    0.0000 N   0  0  0  0  0  0  0  0  0  0  0
   27.4624   -8.8589    0.0000 N   0  0  0  0  0  0  0  0  0  0  0
   26.7447   -9.2606    0.0000 C   0  0  0  0  0  0  0  0  0  0  0
   26.0350   -8.8373    0.0000 C   0  0  0  0  0  0  0  0  0  0  0
   25.3130   -9.2390    0.0000 C   0  0  0  0  0  0  0  0  0  0  0
   25.3006  -10.0639    0.0000 C   0  0  0  0  0  0  0  0  0  0  0
   26.0101  -10.4871    0.0000 C   0  0  0  0  0  0  0  0  0  0  0
   26.7321  -10.0855    0.0000 C   0  0  0  0  0  0  0  0  0  0  0
   26.0476   -8.0124    0.0000 S   0  0  0  0  0  0  0  0  0  0  0
   26.8725   -8.0249    0.0000 O   0  0  0  0  0  0  0  0  0  0  0
   25.3429   -7.5843    0.0000 C   0  0  0  0  0  0  0  0  0  0  0
   24.6208   -7.9858    0.0000 C   0  0  0  0  0  0  0  0  0  0  0
   25.3576   -6.7581    0.0000 C   0  0  0  0  0  0  0  0  0  0  0
   27.4375  -10.5087    0.0000 Cl  0  0  0  0  0  0  0  0  0  0  0
   26.4541   -7.2917    0.0000 O   0  0  0  0  0  0  0  0  0  0  0
   34.5814  -10.6169    0.0000 C   0  0  0  0  0  0  0  0  0  0  0
   34.6552  -11.4359    0.0000 C   0  0  0  0  0  0  0  0  0  0  0
   35.3401  -10.2902    0.0000 N   0  0  0  0  0  0  0  0  0  0  0
   35.8828  -10.9114    0.0000 C   0  0  0  0  0  0  0  0  0  0  0
   35.4566  -11.6170    0.0000 C   0  0  0  0  0  0  0  0  0  0  0
   35.8544  -12.3369    0.0000 C   0  0  0  0  0  0  0  0  0  0  0
   36.6784  -12.3524    0.0000 C   0  0  0  0  0  0  0  0  0  0  0
   37.1030  -11.6420    0.0000 C   0  0  0  0  0  0  0  0  0  0  0
   36.7026  -10.9250    0.0000 C   0  0  0  0  0  0  0  0  0  0  0
  2  3  2  0  0  0  0
  2  4  1  0  0  0  0
  1  2  1  0  0  0  0
  5  6  4  0  0  0  0
  6  7  4  0  0  0  0
  7  8  4  0  0  0  0
  8  9  4  0  0  0  0
  9 10  4  0  0  0  0
  5 10  4  0  0  0  0
 12 13  4  0  0  0  0
 13 14  4  0  0  0  0
 14 15  4  0  0  0  0
 15 16  4  0  0  0  0
 16 17  4  0  0  0  0
 12 17  4  0  0  0  0
 19 20  4  0  0  0  0
 20 21  4  0  0  0  0
 21 22  4  0  0  0  0
 22 23  4  0  0  0  0
 23 24  4  0  0  0  0
 19 24  4  0  0  0  0
 25 26  2  0  0  0  0
 27 28  1  0  0  0  0
 27 29  1  0  0  0  0
 25 27  1  0  0  0  0
 20 25  1  0  0  0  0
 18 19  1  0  0  0  0
 14 18  1  0  0  0  0
 15 30  1  0  0  0  0
 11 12  1  0  0  0  0
  7 11  1  0  0  0  0
  4  5  1  0  0  0  0
 25 31  2  0  0  0  0
  1 32  1  0  0  0  0
 32 33  4  0  0  0  0
 33 36  4  0  0  0  0
 35 34  4  0  0  0  0
 34 32  4  0  0  0  0
 35 36  4  0  0  0  0
 36 37  4  0  0  0  0
 37 38  4  0  0  0  0
 38 39  4  0  0  0  0
 39 40  4  0  0  0  0
 40 35  4  0  0  0  0
M  STY  1   1 DAT
M  SAL   1  1  34
M  SDT   1 MRV_IMPLICIT_H                                        
M  SDD   1     0.0000    0.0000    DR    ALL  0       0  
M  SED   1 IMPL_H1
M  END
> <From>
www.bindingDB.org

> <BindingDB Reactant_set_id>
50266126

> <Ligand InChI>
InChI=1S/C29H27ClN6O3S/c1-18(2)40(38,39)26-13-6-5-12-25(26)35-28-23(30)17-31-29(36-28)34-21-10-7-9-20(15-21)33-27(37)16-22-14-19-8-3-4-11-24(19)32-22/h3-15,17-18,32H,16H2,1-2H3,(H,33,37)(H2,31,34,35,36)

> <Ligand InChI Key>
LBVKJYSNGDPIJD-UHFFFAOYSA-N

> <BindingDB MonomerID>
50044471

> <BindingDB Ligand Name>
CHEMBL3357466

> <Target Name Assigned by Curator or DataSource>
ALK tyrosine kinase receptor

> <Target Source Organism According to Curator or DataSource>
Homo sapiens

> <Ki (nM)>


> <IC50 (nM)>
 95

> <Kd (nM)>


> <EC50 (nM)>


> <kon (M-1-s-1)>


> <koff (s-1)>


> <pH>


> <Temp C>


> <Curation/DataSource>
ChEMBL

> <Article DOI>
10.1021/jm5005144

> <PMID>
24785465

> <PubChem AID>


> <Patent Number>


> <Authors>
Song, Z; Yang, Y; Liu, Z; Peng, X; Guo, J; Yang, X; Wu, K; Ai, J; Ding, J; Geng, M; Zhang, A

> <Institution>
Chinese Academy of Sciences

> <Link to Ligand in BindingDB>
http://www.bindingdb.org/bind/chemsearch/marvin/MolStructure.jsp?monomerid=50044471

> <Link to Ligand-Target Pair in BindingDB>
http://www.bindingdb.org/jsp/dbsearch/PrimarySearch_ki.jsp?energyterm=kJ/mole&tag=pol&polymerid=5809&target=ALK+tyrosine+kinase+receptor&column=ki&startPg=0&Increment=50&submit=Search

> <Link to Ligand-Target Pair in BindingDB>
http://www.bindingdb.org/jsp/dbsearch/PrimarySearch_ki.jsp?energyterm=kJ/mole&tag=r21&monomerid=50044471&enzyme=ALK+tyrosine+kinase+receptor&column=ki&startPg=0&Increment=50&submit=Search

> <Ligand HET ID in PDB>


> <PDB ID(s) for Ligand-Target Complex>


> <PubChem CID>
118722236

> <PubChem SID>
313068217

> <ChEBI ID of Ligand>


> <ChEMBL ID of Ligand>
CHEMBL3357466

> <DrugBank ID of Ligand>


> <IUPHAR_GRAC ID of Ligand>


> <KEGG ID of Ligand>


> <ZINC ID of Ligand>


> <Number of Protein Chains in Target (>1 implies a multichain complex)>
1

> <BindingDB Target Chain Sequence>
MGAIGLLWLLPLLLSTAAVGSGMGTGQRAGSPAAGPPLQPREPLSYSRLQRKSLAVDFVVPSLFRVYARDLLLPPSSSELKAGRPEARGSLALDCAPLLRLLGPAPGVSWTAGSPAPAEARTLSRVLKGGSVRKLRRAKQLVLELGEEAILEGCVGPPGEAAVGLLQFNLSELFSWWIRQGEGRLRIRLMPEKKASEVGREGRLSAAIRASQPRLLFQIFGTGHSSLESPTNMPSPSPDYFTWNLTWIMKDSFPFLSHRSRYGLECSFDFPCELEYSPPLHDLRNQSWSWRRIPSEEASQMDLLDGPGAERSKEMPRGSFLLLNTSADSKHTILSPWMRSSSEHCTLAVSVHRHLQPSGRYIAQLLPHNEAAREILLMPTPGKHGWTVLQGRIGRPDNPFRVALEYISSGNRSLSAVDFFALKNCSEGTSPGSKMALQSSFTCWNGTVLQLGQACDFHQDCAQGEDESQMCRKLPVGFYCNFEDGFCGWTQGTLSPHTPQWQVRTLKDARFQDHQDHALLLSTTDVPASESATVTSATFPAPIKSSPCELRMSWLIRGVLRGNVSLVLVENKTGKEQGRMVWHVAAYEGLSLWQWMVLPLLDVSDRFWLQMVAWWGQGSRAIVAFDNISISLDCYLTISGEDKILQNTAPKSRNLFERNPNKELKPGENSPRQTPIFDPTVHWLFTTCGASGPHGPTQAQCNNAYQNSNLSVEVGSEGPLKGIQIWKVPATDTYSISGYGAAGGKGGKNTMMRSHGVSVLGIFNLEKDDMLYILVGQQGEDACPSTNQLIQKVCIGENNVIEEEIRVNRSVHEWAGGGGGGGGATYVFKMKDGVPVPLIIAAGGGGRAYGAKTDTFHPERLENNSSVLGLNGNSGAAGGGGGWNDNTSLLWAGKSLQEGATGGHSCPQAMKKWGWETRGGFGGGGGGCSSGGGGGGYIGGNAASNNDPEMDGEDGVSFISPLGILYTPALKVMEGHGEVNIKHYLNCSHCEVDECHMDPESHKVICFCDHGTVLAEDGVSCIVSPTPEPHLPLSLILSVVTSALVAALVLAFSGIMIVYRRKHQELQAMQMELQSPEYKLSKLRTSTIMTDYNPNYCFAGKTSSISDLKEVPRKNITLIRGLGHGAFGEVYEGQVSGMPNDPSPLQVAVKTLPEVCSEQDELDFLMEALIISKFNHQNIVRCIGVSLQSLPRFILLELMAGGDLKSFLRETRPRPSQPSSLAMLDLLHVARDIACGCQYLEENHFIHRDIAARNCLLTCPGPGRVAKIGDFGMARDIYRASYYRKGGCAMLPVKWMPPEAFMEGIFTSKTDTWSFGVLLWEIFSLGYMPYPSKSNQEVLEFVTSGGRMDPPKNCPGPVYRIMTQCWQHQPEDRPNFAIILERIEYCTQDPDVINTALPIEYGPLVEEEEKVPVRPKDPEGVPPLLVSQQAKREEERSPAAPPPLPTTSSGKAAKKPTAAEISVRVPRGPAVEGGHVNMAFSQSNPPSELHKVHGSRNKPTSLWNPTYGSWFTEKPTKKNNPIAKKEPHDRGNLGLEGSCTVPPNVATGRLPGASLLLEPSSLTANMKEVPLFRLRHFPCGNVNYGYQQQGLPLEAATAPGAGHYEDTILKSKNSMNQPGP

> <PDB ID(s) of Target Chain>
2XB7,2XBA,3AOX,5FTO,5FTQ,6E0R,6EBW,6EDL,6MX8

> <UniProt (SwissProt) Recommended Name of Target Chain>
ALK tyrosine kinase receptor

> <UniProt (SwissProt) Entry Name of Target Chain>
ALK_HUMAN

> <UniProt (SwissProt) Primary ID of Target Chain>
Q9UM73

> <UniProt (SwissProt) Secondary ID(s) of Target Chain>
Q4ZFX9,Q53QQ6,Q53RZ4,Q59FI3,Q9Y4K6

> <UniProt (SwissProt) Alternative ID(s) of Target Chain>


> <UniProt (TrEMBL) Submitted Name of Target Chain>


> <UniProt (TrEMBL) Entry Name of Target Chain>


> <UniProt (TrEMBL) Primary ID of Target Chain>


> <UniProt (TrEMBL) Secondary ID(s) of Target Chain>


> <UniProt (TrEMBL) Alternative ID(s) of Target Chain>


$$$$
BindingDB_50062357

Vconf v2.0 Academic SN VC001-00000245
 27 29  0  0  0  0  0  0  0  0999 V2000
    1.1780   -1.7300    0.7180 C   0  0  0  0  0  0  0  0  0  0  0
    2.2180   -0.9970    0.2510 C   0  0  0  0  0  0  0  0  0  0  0
    1.9180   -2.4340    1.5900 C   0  0  0  0  0  0  0  0  0  0  0
    2.8890   -1.6770    1.1460 C   0  0  0  0  0  0  0  0  0  0  0
   -0.1090   -1.7240    0.3820 N   0  0  0  0  0  0  0  0  0  0  0
   -0.7860   -4.0180    0.3330 C   0  0  0  0  0  0  0  0  0  0  0
   -0.6230   -5.5650   -1.0870 N   0  0  0  0  0  0  0  0  0  0  0
   -0.8940   -4.3070   -0.9690 N   0  0  0  0  0  0  0  0  0  0  0
   -0.3580   -6.0380    0.0870 N   0  0  0  0  0  0  0  0  0  0  0
   -0.4460   -5.1280    0.9970 N   0  0  0  0  0  0  0  0  0  0  0
    2.4270   -0.1090   -0.6450 N   0  0  0  0  0  0  0  0  0  0  0
   -1.0050   -2.6960    0.9300 C   0  0  0  0  0  0  0  0  0  0  0
    1.7560   -3.3930    2.4840 O   0  0  0  0  0  0  0  0  0  0  0
    4.0690   -1.6520    1.4610 O   0  0  0  0  0  0  0  0  0  0  0
   -0.6100   -0.7100   -0.4940 C   0  0  0  0  0  0  0  0  0  0  0
    0.2500   -0.5200   -1.7570 C   0  0  0  0  0  0  0  0  0  0  0
    1.4660    0.3980   -1.5070 C   0  0  0  0  0  0  0  0  0  0  0
   -0.1240   -6.9630    0.2610 H   0  0  0  0  0  0  0  0  0  0  0
   -0.8700   -2.7540    2.0110 H   0  0  0  0  0  0  0  0  0  0  0
   -2.0400   -2.4120    0.7370 H   0  0  0  0  0  0  0  0  0  0  0
    2.5800   -3.6420    2.9530 H   0  0  0  0  0  0  0  0  0  0  0
   -1.6210   -0.9650   -0.8150 H   0  0  0  0  0  0  0  0  0  0  0
   -0.6580    0.2360    0.0480 H   0  0  0  0  0  0  0  0  0  0  0
   -0.3690   -0.0510   -2.5230 H   0  0  0  0  0  0  0  0  0  0  0
    0.5830   -1.4900   -2.1310 H   0  0  0  0  0  0  0  0  0  0  0
    1.1210    1.3590   -1.1220 H   0  0  0  0  0  0  0  0  0  0  0
    1.9500    0.5740   -2.4690 H   0  0  0  0  0  0  0  0  0  0  0
  1  2  1  0  0  0  0
  1  3  2  0  0  0  0
  1  5  1  0  0  0  0
  2  4  1  0  0  0  0
  2 11  2  0  0  0  0
  3  4  1  0  0  0  0
  3 13  1  0  0  0  0
  4 14  2  0  0  0  0
  5 12  1  0  0  0  0
  5 15  1  0  0  0  0
  6  8  1  0  0  0  0
  6 10  2  0  0  0  0
  6 12  1  0  0  0  0
  7  8  2  0  0  0  0
  7  9  1  0  0  0  0
  9 10  1  0  0  0  0
  9 18  1  0  0  0  0
 11 17  1  0  0  0  0
 12 19  1  0  0  0  0
 12 20  1  0  0  0  0
 13 21  1  0  0  0  0
 15 16  1  0  0  0  0
 15 22  1  0  0  0  0
 15 23  1  0  0  0  0
 16 17  1  0  0  0  0
 16 24  1  0  0  0  0
 16 25  1  0  0  0  0
 17 26  1  0  0  0  0
 17 27  1  0  0  0  0
M  END
> <From>
www.bindingDB.org

> <BindingDB Reactant_set_id>
50295425

> <Ligand InChI>
InChI=1S/C26H34ClN6O2P/c1-32(2)18-12-14-33(15-13-18)19-10-11-21(23(16-19)35-3)30-26-28-17-20(27)25(31-26)29-22-8-6-7-9-24(22)36(4,5)34/h6-11,16-18H,12-15H2,1-5H3,(H2,28,29,30,31)

> <Ligand InChI Key>
OVDSPTSBIQCAIN-UHFFFAOYSA-N

> <BindingDB MonomerID>
50062357

> <BindingDB Ligand Name>
AP26113::CHEMBL3397300

> <Target Name Assigned by Curator or DataSource>
ALK tyrosine kinase receptor

> <Target Source Organism According to Curator or DataSource>
Homo sapiens

> <Ki (nM)>


> <IC50 (nM)>
 0.620000

> <Kd (nM)>


> <EC50 (nM)>


> <kon (M-1-s-1)>


> <koff (s-1)>


> <pH>


> <Temp C>


> <Curation/DataSource>
ChEMBL

> <Article DOI>
10.1016/j.ejmech.2014.11.023

> <PMID>
25461320

> <PubChem AID>


> <Patent Number>


> <Authors>
Abdelazem, AZ; Al-Sanea, MM; Park, BS; Park, HM; Yoo, KH; Sim, T; Park, JB; Lee, SH; Lee, SH

> <Institution>
Korea University of Science and Technology

> <Link to Ligand in BindingDB>
http://www.bindingdb.org/bind/chemsearch/marvin/MolStructure.jsp?monomerid=50062357

> <Link to Ligand-Target Pair in BindingDB>
http://www.bindingdb.org/jsp/dbsearch/PrimarySearch_ki.jsp?energyterm=kJ/mole&tag=pol&polymerid=5809&target=ALK+tyrosine+kinase+receptor&column=ki&startPg=0&Increment=50&submit=Search

> <Link to Ligand-Target Pair in BindingDB>
http://www.bindingdb.org/jsp/dbsearch/PrimarySearch_ki.jsp?energyterm=kJ/mole&tag=r21&monomerid=50062357&enzyme=ALK+tyrosine+kinase+receptor&column=ki&startPg=0&Increment=50&submit=Search

> <Ligand HET ID in PDB>
E5J

> <PDB ID(s) for Ligand-Target Complex>


> <PubChem CID>
57390074

> <PubChem SID>
103957880

> <ChEBI ID of Ligand>


> <ChEMBL ID of Ligand>
CHEMBL3397300

> <DrugBank ID of Ligand>


> <IUPHAR_GRAC ID of Ligand>


> <KEGG ID of Ligand>


> <ZINC ID of Ligand>
ZINC36294183

> <Number of Protein Chains in Target (>1 implies a multichain complex)>
1

> <BindingDB Target Chain Sequence>
MGAIGLLWLLPLLLSTAAVGSGMGTGQRAGSPAAGPPLQPREPLSYSRLQRKSLAVDFVVPSLFRVYARDLLLPPSSSELKAGRPEARGSLALDCAPLLRLLGPAPGVSWTAGSPAPAEARTLSRVLKGGSVRKLRRAKQLVLELGEEAILEGCVGPPGEAAVGLLQFNLSELFSWWIRQGEGRLRIRLMPEKKASEVGREGRLSAAIRASQPRLLFQIFGTGHSSLESPTNMPSPSPDYFTWNLTWIMKDSFPFLSHRSRYGLECSFDFPCELEYSPPLHDLRNQSWSWRRIPSEEASQMDLLDGPGAERSKEMPRGSFLLLNTSADSKHTILSPWMRSSSEHCTLAVSVHRHLQPSGRYIAQLLPHNEAAREILLMPTPGKHGWTVLQGRIGRPDNPFRVALEYISSGNRSLSAVDFFALKNCSEGTSPGSKMALQSSFTCWNGTVLQLGQACDFHQDCAQGEDESQMCRKLPVGFYCNFEDGFCGWTQGTLSPHTPQWQVRTLKDARFQDHQDHALLLSTTDVPASESATVTSATFPAPIKSSPCELRMSWLIRGVLRGNVSLVLVENKTGKEQGRMVWHVAAYEGLSLWQWMVLPLLDVSDRFWLQMVAWWGQGSRAIVAFDNISISLDCYLTISGEDKILQNTAPKSRNLFERNPNKELKPGENSPRQTPIFDPTVHWLFTTCGASGPHGPTQAQCNNAYQNSNLSVEVGSEGPLKGIQIWKVPATDTYSISGYGAAGGKGGKNTMMRSHGVSVLGIFNLEKDDMLYILVGQQGEDACPSTNQLIQKVCIGENNVIEEEIRVNRSVHEWAGGGGGGGGATYVFKMKDGVPVPLIIAAGGGGRAYGAKTDTFHPERLENNSSVLGLNGNSGAAGGGGGWNDNTSLLWAGKSLQEGATGGHSCPQAMKKWGWETRGGFGGGGGGCSSGGGGGGYIGGNAASNNDPEMDGEDGVSFISPLGILYTPALKVMEGHGEVNIKHYLNCSHCEVDECHMDPESHKVICFCDHGTVLAEDGVSCIVSPTPEPHLPLSLILSVVTSALVAALVLAFSGIMIVYRRKHQELQAMQMELQSPEYKLSKLRTSTIMTDYNPNYCFAGKTSSISDLKEVPRKNITLIRGLGHGAFGEVYEGQVSGMPNDPSPLQVAVKTLPEVCSEQDELDFLMEALIISKFNHQNIVRCIGVSLQSLPRFILLELMAGGDLKSFLRETRPRPSQPSSLAMLDLLHVARDIACGCQYLEENHFIHRDIAARNCLLTCPGPGRVAKIGDFGMARDIYRASYYRKGGCAMLPVKWMPPEAFMEGIFTSKTDTWSFGVLLWEIFSLGYMPYPSKSNQEVLEFVTSGGRMDPPKNCPGPVYRIMTQCWQHQPEDRPNFAIILERIEYCTQDPDVINTALPIEYGPLVEEEEKVPVRPKDPEGVPPLLVSQQAKREEERSPAAPPPLPTTSSGKAAKKPTAAEISVRVPRGPAVEGGHVNMAFSQSNPPSELHKVHGSRNKPTSLWNPTYGSWFTEKPTKKNNPIAKKEPHDRGNLGLEGSCTVPPNVATGRLPGASLLLEPSSLTANMKEVPLFRLRHFPCGNVNYGYQQQGLPLEAATAPGAGHYEDTILKSKNSMNQPGP

> <PDB ID(s) of Target Chain>
2XB7,2XBA,3AOX,5FTO,5FTQ,6E0R,6EBW,6EDL,6MX8

> <UniProt (SwissProt) Recommended Name of Target Chain>
ALK tyrosine kinase receptor

> <UniProt (SwissProt) Entry Name of Target Chain>
ALK_HUMAN

> <UniProt (SwissProt) Primary ID of Target Chain>
Q9UM73

> <UniProt (SwissProt) Secondary ID(s) of Target Chain>
Q4ZFX9,Q53QQ6,Q53RZ4,Q59FI3,Q9Y4K6

> <UniProt (SwissProt) Alternative ID(s) of Target Chain>


> <UniProt (TrEMBL) Submitted Name of Target Chain>


> <UniProt (TrEMBL) Entry Name of Target Chain>


> <UniProt (TrEMBL) Primary ID of Target Chain>


> <UniProt (TrEMBL) Secondary ID(s) of Target Chain>


> <UniProt (TrEMBL) Alternative ID(s) of Target Chain>


$$$$
BindingDB_50116665

Vconf v2.0 Academic SN VC001-00000245
 48 49  0  0  0  0  0  0  0  0999 V2000
    8.5630   -6.8430    0.9030 C   0  0  0  0  0  0  0  0  0  0  0
    7.8070   -5.7470    0.5730 N   0  0  0  0  0  0  0  0  0  0  0
    8.4040   -4.6150   -0.0870 C   0  0  2  0  0  0  0  0  0  0  0
    9.0060   -2.2070    0.1680 N   0  0  0  0  0  0  0  0  0  0  0
    8.2970   -3.3460    0.7840 C   0  0  0  0  0  0  0  0  0  0  0
    7.9990   -8.0980    1.4380 C   0  0  0  0  0  0  0  0  0  0  0
    9.8030   -6.8220    0.7300 O   0  0  0  0  0  0  0  0  0  0  0
   10.9860   -1.0940    0.4290 C   0  0  0  0  0  0  0  0  0  0  0
   10.0310   -0.2860    0.8620 C   0  0  0  0  0  0  0  0  0  0  0
    7.2700   -8.8750    0.4110 C   0  0  0  0  0  0  0  0  0  0  0
    7.7660   -4.3870   -1.4740 C   0  0  0  0  0  0  0  0  0  0  0
    5.8730  -10.3500   -1.5560 C   0  0  0  0  0  0  0  0  0  0  0
    5.2270  -11.0220   -2.4660 F   0  0  0  0  0  0  0  0  0  0  0
    7.1500   -5.3360   -3.9630 S   0  0  0  0  0  0  0  0  0  0  0
    8.7640   -0.9400    0.8890 C   0  0  0  0  0  0  0  0  0  0  0
   10.4730   -2.3860    0.1120 C   0  0  0  0  0  0  0  0  0  0  0
    7.9250   -9.3090   -0.7620 C   0  0  0  0  0  0  0  0  0  0  0
    5.9120   -9.2090    0.5950 C   0  0  0  0  0  0  0  0  0  0  0
    7.2310  -10.0360   -1.7430 C   0  0  0  0  0  0  0  0  0  0  0
    5.2150   -9.9380   -0.3840 C   0  0  0  0  0  0  0  0  0  0  0
    6.4040   -5.7280    0.8530 C   0  0  0  0  0  0  0  0  0  0  0
    7.8350   -5.6600   -2.3310 C   0  0  0  0  0  0  0  0  0  0  0
    7.2730   -6.9940   -4.6550 C   0  0  0  0  0  0  0  0  0  0  0
    9.4670   -4.7860   -0.2650 H   0  0  0  0  0  0  0  0  0  0  0
    8.7160   -3.5500    1.7700 H   0  0  0  0  0  0  0  0  0  0  0
    7.2470   -3.0750    0.9020 H   0  0  0  0  0  0  0  0  0  0  0
    8.8160   -8.7200    1.8070 H   0  0  0  0  0  0  0  0  0  0  0
    7.3560   -7.8620    2.2870 H   0  0  0  0  0  0  0  0  0  0  0
   11.9410   -0.8410    0.3570 H   0  0  0  0  0  0  0  0  0  0  0
   10.1820    0.6480    1.1550 H   0  0  0  0  0  0  0  0  0  0  0
    6.7240   -4.0860   -1.3650 H   0  0  0  0  0  0  0  0  0  0  0
    8.3070   -3.5910   -1.9870 H   0  0  0  0  0  0  0  0  0  0  0
    8.4600   -1.1050    1.9240 H   0  0  0  0  0  0  0  0  0  0  0
    8.0140   -0.3480    0.3640 H   0  0  0  0  0  0  0  0  0  0  0
   10.8290   -3.1110    0.8460 H   0  0  0  0  0  0  0  0  0  0  0
   10.7750   -2.6850   -0.8920 H   0  0  0  0  0  0  0  0  0  0  0
    8.9110   -9.0870   -0.9070 H   0  0  0  0  0  0  0  0  0  0  0
    5.4230   -8.9120    1.4410 H   0  0  0  0  0  0  0  0  0  0  0
    7.7150  -10.3350   -2.5900 H   0  0  0  0  0  0  0  0  0  0  0
    4.2310  -10.1660   -0.2410 H   0  0  0  0  0  0  0  0  0  0  0
    5.9580   -4.7700    0.5940 H   0  0  0  0  0  0  0  0  0  0  0
    5.8960   -6.4950    0.2700 H   0  0  0  0  0  0  0  0  0  0  0
    6.2300   -5.9040    1.9150 H   0  0  0  0  0  0  0  0  0  0  0
    8.8730   -5.9800   -2.4300 H   0  0  0  0  0  0  0  0  0  0  0
    7.2570   -6.4540   -1.8580 H   0  0  0  0  0  0  0  0  0  0  0
    6.8960   -6.9890   -5.6780 H   0  0  0  0  0  0  0  0  0  0  0
    8.3160   -7.3130   -4.6550 H   0  0  0  0  0  0  0  0  0  0  0
    6.6820   -7.6860   -4.0540 H   0  0  0  0  0  0  0  0  0  0  0
  1  2  1  0  0  0  0
  1  6  1  0  0  0  0
  1  7  2  0  0  0  0
  2  3  1  0  0  0  0
  2 21  1  0  0  0  0
  3  5  1  0  0  0  0
  3 11  1  1  0  0  0
  3 24  1  0  0  0  0
  4  5  1  0  0  0  0
  4 15  1  0  0  0  0
  4 16  1  0  0  0  0
  5 25  1  0  0  0  0
  5 26  1  0  0  0  0
  6 10  1  0  0  0  0
  6 27  1  0  0  0  0
  6 28  1  0  0  0  0
  8  9  2  0  0  0  0
  8 16  1  0  0  0  0
  8 29  1  0  0  0  0
  9 15  1  0  0  0  0
  9 30  1  0  0  0  0
 10 17  1  0  0  0  0
 10 18  2  0  0  0  0
 11 22  1  0  0  0  0
 11 31  1  0  0  0  0
 11 32  1  0  0  0  0
 12 13  1  0  0  0  0
 12 19  1  0  0  0  0
 12 20  2  0  0  0  0
 14 22  1  0  0  0  0
 14 23  1  0  0  0  0
 15 33  1  0  0  0  0
 15 34  1  0  0  0  0
 16 35  1  0  0  0  0
 16 36  1  0  0  0  0
 17 19  2  0  0  0  0
 17 37  1  0  0  0  0
 18 20  1  0  0  0  0
 18 38  1  0  0  0  0
 19 39  1  0  0  0  0
 20 40  1  0  0  0  0
 21 41  1  0  0  0  0
 21 42  1  0  0  0  0
 21 43  1  0  0  0  0
 22 44  1  0  0  0  0
 22 45  1  0  0  0  0
 23 46  1  0  0  0  0
 23 47  1  0  0  0  0
 23 48  1  0  0  0  0
M  END
> <From>
www.bindingDB.org

> <BindingDB Reactant_set_id>
490454

> <Ligand InChI>
InChI=1S/C24H26ClN5O4S/c1-14(2)35(32,33)21-9-5-4-8-18(21)28-22-17(25)13-27-24(30-22)29-19-11-15-7-6-10-26-23(31)16(15)12-20(19)34-3/h4-5,8-9,11-14H,6-7,10H2,1-3H3,(H,26,31)(H2,27,28,29,30)

> <Ligand InChI Key>
ZNLXCLMQEIQSAS-UHFFFAOYSA-N

> <BindingDB MonomerID>
50116665

> <BindingDB Ligand Name>
CHEMBL3608519::US10053458, 48

> <Target Name Assigned by Curator or DataSource>
ALK tyrosine kinase receptor

> <Target Source Organism According to Curator or DataSource>
Homo sapiens

> <Ki (nM)>


> <IC50 (nM)>
<10.00

> <Kd (nM)>


> <EC50 (nM)>


> <kon (M-1-s-1)>


> <koff (s-1)>


> <pH>


> <Temp C>
25.00

> <Curation/DataSource>
US Patent

> <Article DOI>


> <PMID>


> <PubChem AID>


> <Patent Number>
US10053458

> <Authors>
Yun, CS; Kim, HR; Cho, SY; Jung, HJ; Lee, K; Chae, CH; Lee, CO; Park, CH; Kim, P; Hwang, JY; Ha, JD; Ahn, SJ

> <Institution>
KOREA RESEARCH INSTITUTE OF CHEMICAL TECHNOLOGY

> <Link to Ligand in BindingDB>
http://www.bindingdb.org/bind/chemsearch/marvin/MolStructure.jsp?monomerid=50116665

> <Link to Ligand-Target Pair in BindingDB>
http://www.bindingdb.org/jsp/dbsearch/PrimarySearch_ki.jsp?energyterm=kJ/mole&tag=pol&polymerid=5809&target=ALK+tyrosine+kinase+receptor&column=ki&startPg=0&Increment=50&submit=Search

> <Link to Ligand-Target Pair in BindingDB>
http://www.bindingdb.org/jsp/dbsearch/PrimarySearch_ki.jsp?energyterm=kJ/mole&tag=r21&monomerid=50116665&enzyme=ALK+tyrosine+kinase+receptor&column=ki&startPg=0&Increment=50&submit=Search

> <Ligand HET ID in PDB>


> <PDB ID(s) for Ligand-Target Complex>


> <PubChem CID>
122186934

> <PubChem SID>
104010336

> <ChEBI ID of Ligand>


> <ChEMBL ID of Ligand>
CHEMBL3608519

> <DrugBank ID of Ligand>


> <IUPHAR_GRAC ID of Ligand>


> <KEGG ID of Ligand>


> <ZINC ID of Ligand>
ZINC49820263

> <Number of Protein Chains in Target (>1 implies a multichain complex)>
1

> <BindingDB Target Chain Sequence>
MGAIGLLWLLPLLLSTAAVGSGMGTGQRAGSPAAGPPLQPREPLSYSRLQRKSLAVDFVVPSLFRVYARDLLLPPSSSELKAGRPEARGSLALDCAPLLRLLGPAPGVSWTAGSPAPAEARTLSRVLKGGSVRKLRRAKQLVLELGEEAILEGCVGPPGEAAVGLLQFNLSELFSWWIRQGEGRLRIRLMPEKKASEVGREGRLSAAIRASQPRLLFQIFGTGHSSLESPTNMPSPSPDYFTWNLTWIMKDSFPFLSHRSRYGLECSFDFPCELEYSPPLHDLRNQSWSWRRIPSEEASQMDLLDGPGAERSKEMPRGSFLLLNTSADSKHTILSPWMRSSSEHCTLAVSVHRHLQPSGRYIAQLLPHNEAAREILLMPTPGKHGWTVLQGRIGRPDNPFRVALEYISSGNRSLSAVDFFALKNCSEGTSPGSKMALQSSFTCWNGTVLQLGQACDFHQDCAQGEDESQMCRKLPVGFYCNFEDGFCGWTQGTLSPHTPQWQVRTLKDARFQDHQDHALLLSTTDVPASESATVTSATFPAPIKSSPCELRMSWLIRGVLRGNVSLVLVENKTGKEQGRMVWHVAAYEGLSLWQWMVLPLLDVSDRFWLQMVAWWGQGSRAIVAFDNISISLDCYLTISGEDKILQNTAPKSRNLFERNPNKELKPGENSPRQTPIFDPTVHWLFTTCGASGPHGPTQAQCNNAYQNSNLSVEVGSEGPLKGIQIWKVPATDTYSISGYGAAGGKGGKNTMMRSHGVSVLGIFNLEKDDMLYILVGQQGEDACPSTNQLIQKVCIGENNVIEEEIRVNRSVHEWAGGGGGGGGATYVFKMKDGVPVPLIIAAGGGGRAYGAKTDTFHPERLENNSSVLGLNGNSGAAGGGGGWNDNTSLLWAGKSLQEGATGGHSCPQAMKKWGWETRGGFGGGGGGCSSGGGGGGYIGGNAASNNDPEMDGEDGVSFISPLGILYTPALKVMEGHGEVNIKHYLNCSHCEVDECHMDPESHKVICFCDHGTVLAEDGVSCIVSPTPEPHLPLSLILSVVTSALVAALVLAFSGIMIVYRRKHQELQAMQMELQSPEYKLSKLRTSTIMTDYNPNYCFAGKTSSISDLKEVPRKNITLIRGLGHGAFGEVYEGQVSGMPNDPSPLQVAVKTLPEVCSEQDELDFLMEALIISKFNHQNIVRCIGVSLQSLPRFILLELMAGGDLKSFLRETRPRPSQPSSLAMLDLLHVARDIACGCQYLEENHFIHRDIAARNCLLTCPGPGRVAKIGDFGMARDIYRASYYRKGGCAMLPVKWMPPEAFMEGIFTSKTDTWSFGVLLWEIFSLGYMPYPSKSNQEVLEFVTSGGRMDPPKNCPGPVYRIMTQCWQHQPEDRPNFAIILERIEYCTQDPDVINTALPIEYGPLVEEEEKVPVRPKDPEGVPPLLVSQQAKREEERSPAAPPPLPTTSSGKAAKKPTAAEISVRVPRGPAVEGGHVNMAFSQSNPPSELHKVHGSRNKPTSLWNPTYGSWFTEKPTKKNNPIAKKEPHDRGNLGLEGSCTVPPNVATGRLPGASLLLEPSSLTANMKEVPLFRLRHFPCGNVNYGYQQQGLPLEAATAPGAGHYEDTILKSKNSMNQPGP

> <PDB ID(s) of Target Chain>
2XB7,2XBA,3AOX,5FTO,5FTQ,6E0R,6EBW,6EDL,6MX8

> <UniProt (SwissProt) Recommended Name of Target Chain>
ALK tyrosine kinase receptor

> <UniProt (SwissProt) Entry Name of Target Chain>
ALK_HUMAN

> <UniProt (SwissProt) Primary ID of Target Chain>
Q9UM73

> <UniProt (SwissProt) Secondary ID(s) of Target Chain>
Q4ZFX9,Q53QQ6,Q53RZ4,Q59FI3,Q9Y4K6

> <UniProt (SwissProt) Alternative ID(s) of Target Chain>


> <UniProt (TrEMBL) Submitted Name of Target Chain>


> <UniProt (TrEMBL) Entry Name of Target Chain>


> <UniProt (TrEMBL) Primary ID of Target Chain>


> <UniProt (TrEMBL) Secondary ID(s) of Target Chain>


> <UniProt (TrEMBL) Alternative ID(s) of Target Chain>


$$$$

  SciTegic04201609482D

 35 38  0  0  0  0            999 V2000
   -4.1157    6.0164    0.0000 C   0  0
   -5.4175    5.2712    0.0000 C   0  0
   -5.4230    3.7712    0.0000 N   0  0
   -4.1268    3.0163    0.0000 C   0  0
   -2.8250    3.7616    0.0000 N   0  0
   -2.8195    5.2616    0.0000 C   0  0
   -4.1113    7.2164    0.0000 Cl  0  0
   -4.1292    1.5155    0.0000 N   0  0
   -1.5154    6.0046    0.0000 N   0  0
   -0.2195    5.2476    0.0000 C   0  0
   -0.2301    3.7475    0.0000 C   0  0
    1.0635    2.9883    0.0000 C   0  0
    2.3679    3.7290    0.0000 C   0  0
    2.3786    5.2290    0.0000 C   0  0
    1.0849    5.9882    0.0000 C   0  0
    1.0957    7.4890    0.0000 S   0  0
    2.4003    8.2309    0.0000 C   0  0
    2.4089    9.4309    0.0000 C   0  0
    3.4354    7.6238    0.0000 C   0  0
    1.1037    8.6890    0.0000 O   0  0
    0.0606    8.0961    0.0000 O   0  0
   -2.8315    0.7623    0.0000 C   0  0
   -2.8315   -0.7623    0.0000 C   0  0
   -1.4884   -1.5247    0.0000 C   0  0
   -1.4884    1.5247    0.0000 C   0  0
    0.7442   -1.6517    0.0000 C   0  0
    2.2325   -1.4158    0.0000 C   0  0
    2.9404    0.0000    0.0000 C   0  0
    0.0000   -0.7623    0.0000 C   0  0
    0.0000    0.7623    0.0000 C   0  0
    0.7805    1.6880    0.0000 C   0  0
    2.2507    1.3976    0.0000 N   0  0
   -4.1292   -1.5155    0.0000 O   0  0
   -4.1273   -2.7155    0.0000 C   0  0
    0.3830    2.8203    0.0000 O   0  0
  1  2  2  0
  2  3  1  0
  3  4  2  0
  4  5  1  0
  5  6  2  0
  6  1  1  0
  1  7  1  0
  4  8  1  0
  6  9  1  0
  9 10  1  0
 10 11  2  0
 11 12  1  0
 12 13  2  0
 13 14  1  0
 14 15  2  0
 15 10  1  0
 15 16  1  0
 16 17  1  0
 17 18  1  0
 17 19  1  0
 16 20  2  0
 16 21  2  0
  8 22  1  0
 22 23  2  0
 23 24  1  0
 24 29  2  0
 30 25  2  0
 25 22  1  0
 26 27  1  0
 27 28  1  0
 26 29  1  0
 30 31  1  0
 31 32  1  0
 32 28  1  0
 29 30  1  0
 23 33  1  0
 33 34  1  0
 31 35  2  0
M  END
> <From>
www.bindingDB.org

> <BindingDB Reactant_set_id>
50405185

> <Ligand InChI>
InChI=1S/C24H26ClN5O4S/c1-14(2)35(32,33)21-9-5-4-8-18(21)28-22-17(25)13-27-24(30-22)29-19-12-16-15(11-20(19)34-3)7-6-10-26-23(16)31/h4-5,8-9,11-14H,6-7,10H2,1-3H3,(H,26,31)(H2,27,28,29,30)

> <Ligand InChI Key>
HQHWKSPSJJCZPM-UHFFFAOYSA-N

> <BindingDB MonomerID>
50116671

> <BindingDB Ligand Name>
CHEMBL3608520::US10053458, 57

> <Target Name Assigned by Curator or DataSource>
ALK tyrosine kinase receptor

> <Target Source Organism According to Curator or DataSource>
Homo sapiens

> <Ki (nM)>


> <IC50 (nM)>
 12

> <Kd (nM)>


> <EC50 (nM)>


> <kon (M-1-s-1)>


> <koff (s-1)>


> <pH>


> <Temp C>


> <Curation/DataSource>
ChEMBL

> <Article DOI>
10.1016/j.bmcl.2015.07.004

> <PMID>
26235945

> <PubChem AID>


> <Patent Number>


> <Authors>
Kang, GA; Lee, M; Song, D; Lee, HK; Ahn, S; Park, CH; Lee, CO; Yun, CS; Jung, H; Kim, P; Ha, JD; Cho, SY; Kim, HR; Hwang, JY

> <Institution>
Korea Research Institute of Chemical Technology

> <Link to Ligand in BindingDB>
http://www.bindingdb.org/bind/chemsearch/marvin/MolStructure.jsp?monomerid=50116671

> <Link to Ligand-Target Pair in BindingDB>
http://www.bindingdb.org/jsp/dbsearch/PrimarySearch_ki.jsp?energyterm=kJ/mole&tag=pol&polymerid=5809&target=ALK+tyrosine+kinase+receptor&column=ki&startPg=0&Increment=50&submit=Search

> <Link to Ligand-Target Pair in BindingDB>
http://www.bindingdb.org/jsp/dbsearch/PrimarySearch_ki.jsp?energyterm=kJ/mole&tag=r21&monomerid=50116671&enzyme=ALK+tyrosine+kinase+receptor&column=ki&startPg=0&Increment=50&submit=Search

> <Ligand HET ID in PDB>


> <PDB ID(s) for Ligand-Target Complex>


> <PubChem CID>
122186935

> <PubChem SID>
319494325

> <ChEBI ID of Ligand>


> <ChEMBL ID of Ligand>
CHEMBL3608520

> <DrugBank ID of Ligand>


> <IUPHAR_GRAC ID of Ligand>


> <KEGG ID of Ligand>


> <ZINC ID of Ligand>


> <Number of Protein Chains in Target (>1 implies a multichain complex)>
1

> <BindingDB Target Chain Sequence>
MGAIGLLWLLPLLLSTAAVGSGMGTGQRAGSPAAGPPLQPREPLSYSRLQRKSLAVDFVVPSLFRVYARDLLLPPSSSELKAGRPEARGSLALDCAPLLRLLGPAPGVSWTAGSPAPAEARTLSRVLKGGSVRKLRRAKQLVLELGEEAILEGCVGPPGEAAVGLLQFNLSELFSWWIRQGEGRLRIRLMPEKKASEVGREGRLSAAIRASQPRLLFQIFGTGHSSLESPTNMPSPSPDYFTWNLTWIMKDSFPFLSHRSRYGLECSFDFPCELEYSPPLHDLRNQSWSWRRIPSEEASQMDLLDGPGAERSKEMPRGSFLLLNTSADSKHTILSPWMRSSSEHCTLAVSVHRHLQPSGRYIAQLLPHNEAAREILLMPTPGKHGWTVLQGRIGRPDNPFRVALEYISSGNRSLSAVDFFALKNCSEGTSPGSKMALQSSFTCWNGTVLQLGQACDFHQDCAQGEDESQMCRKLPVGFYCNFEDGFCGWTQGTLSPHTPQWQVRTLKDARFQDHQDHALLLSTTDVPASESATVTSATFPAPIKSSPCELRMSWLIRGVLRGNVSLVLVENKTGKEQGRMVWHVAAYEGLSLWQWMVLPLLDVSDRFWLQMVAWWGQGSRAIVAFDNISISLDCYLTISGEDKILQNTAPKSRNLFERNPNKELKPGENSPRQTPIFDPTVHWLFTTCGASGPHGPTQAQCNNAYQNSNLSVEVGSEGPLKGIQIWKVPATDTYSISGYGAAGGKGGKNTMMRSHGVSVLGIFNLEKDDMLYILVGQQGEDACPSTNQLIQKVCIGENNVIEEEIRVNRSVHEWAGGGGGGGGATYVFKMKDGVPVPLIIAAGGGGRAYGAKTDTFHPERLENNSSVLGLNGNSGAAGGGGGWNDNTSLLWAGKSLQEGATGGHSCPQAMKKWGWETRGGFGGGGGGCSSGGGGGGYIGGNAASNNDPEMDGEDGVSFISPLGILYTPALKVMEGHGEVNIKHYLNCSHCEVDECHMDPESHKVICFCDHGTVLAEDGVSCIVSPTPEPHLPLSLILSVVTSALVAALVLAFSGIMIVYRRKHQELQAMQMELQSPEYKLSKLRTSTIMTDYNPNYCFAGKTSSISDLKEVPRKNITLIRGLGHGAFGEVYEGQVSGMPNDPSPLQVAVKTLPEVCSEQDELDFLMEALIISKFNHQNIVRCIGVSLQSLPRFILLELMAGGDLKSFLRETRPRPSQPSSLAMLDLLHVARDIACGCQYLEENHFIHRDIAARNCLLTCPGPGRVAKIGDFGMARDIYRASYYRKGGCAMLPVKWMPPEAFMEGIFTSKTDTWSFGVLLWEIFSLGYMPYPSKSNQEVLEFVTSGGRMDPPKNCPGPVYRIMTQCWQHQPEDRPNFAIILERIEYCTQDPDVINTALPIEYGPLVEEEEKVPVRPKDPEGVPPLLVSQQAKREEERSPAAPPPLPTTSSGKAAKKPTAAEISVRVPRGPAVEGGHVNMAFSQSNPPSELHKVHGSRNKPTSLWNPTYGSWFTEKPTKKNNPIAKKEPHDRGNLGLEGSCTVPPNVATGRLPGASLLLEPSSLTANMKEVPLFRLRHFPCGNVNYGYQQQGLPLEAATAPGAGHYEDTILKSKNSMNQPGP

> <PDB ID(s) of Target Chain>
2XB7,2XBA,3AOX,5FTO,5FTQ,6E0R,6EBW,6EDL,6MX8

> <UniProt (SwissProt) Recommended Name of Target Chain>
ALK tyrosine kinase receptor

> <UniProt (SwissProt) Entry Name of Target Chain>
ALK_HUMAN

> <UniProt (SwissProt) Primary ID of Target Chain>
Q9UM73

> <UniProt (SwissProt) Secondary ID(s) of Target Chain>
Q4ZFX9,Q53QQ6,Q53RZ4,Q59FI3,Q9Y4K6

> <UniProt (SwissProt) Alternative ID(s) of Target Chain>


> <UniProt (TrEMBL) Submitted Name of Target Chain>


> <UniProt (TrEMBL) Entry Name of Target Chain>


> <UniProt (TrEMBL) Primary ID of Target Chain>


> <UniProt (TrEMBL) Secondary ID(s) of Target Chain>


> <UniProt (TrEMBL) Alternative ID(s) of Target Chain>


$$$$

  SciTegic04201609482D

 35 38  0  0  0  0            999 V2000
   -4.1157    6.0164    0.0000 C   0  0
   -5.4175    5.2712    0.0000 C   0  0
   -5.4230    3.7712    0.0000 N   0  0
   -4.1268    3.0163    0.0000 C   0  0
   -2.8250    3.7616    0.0000 N   0  0
   -2.8195    5.2616    0.0000 C   0  0
   -4.1113    7.2164    0.0000 Cl  0  0
   -4.1292    1.5155    0.0000 N   0  0
   -1.5154    6.0046    0.0000 N   0  0
   -0.2195    5.2476    0.0000 C   0  0
   -0.2301    3.7475    0.0000 C   0  0
    1.0635    2.9883    0.0000 C   0  0
    2.3679    3.7290    0.0000 C   0  0
    2.3786    5.2290    0.0000 C   0  0
    1.0849    5.9882    0.0000 C   0  0
    1.0957    7.4890    0.0000 S   0  0
    2.4003    8.2309    0.0000 C   0  0
    2.4089    9.4309    0.0000 C   0  0
    3.4354    7.6238    0.0000 C   0  0
    1.1037    8.6890    0.0000 O   0  0
    0.0606    8.0961    0.0000 O   0  0
   -2.8315    0.7623    0.0000 C   0  0
   -2.8315   -0.7623    0.0000 C   0  0
   -1.4884   -1.5247    0.0000 C   0  0
   -1.4884    1.5247    0.0000 C   0  0
    0.7442   -1.6517    0.0000 C   0  0
    2.2325   -1.4158    0.0000 C   0  0
    2.9404    0.0000    0.0000 N   0  0
    0.0000   -0.7623    0.0000 C   0  0
    0.0000    0.7623    0.0000 C   0  0
    0.7805    1.6880    0.0000 C   0  0
    2.2507    1.3976    0.0000 C   0  0
   -4.1292   -1.5155    0.0000 O   0  0
   -4.1273   -2.7155    0.0000 C   0  0
    2.9416   -2.3838    0.0000 O   0  0
  1  2  2  0
  2  3  1  0
  3  4  2  0
  4  5  1  0
  5  6  2  0
  6  1  1  0
  1  7  1  0
  4  8  1  0
  6  9  1  0
  9 10  1  0
 10 11  2  0
 11 12  1  0
 12 13  2  0
 13 14  1  0
 14 15  2  0
 15 10  1  0
 15 16  1  0
 16 17  1  0
 17 18  1  0
 17 19  1  0
 16 20  2  0
 16 21  2  0
  8 22  1  0
 22 23  2  0
 23 24  1  0
 24 29  2  0
 30 25  2  0
 25 22  1  0
 26 27  1  0
 27 28  1  0
 26 29  1  0
 30 31  1  0
 31 32  1  0
 32 28  1  0
 29 30  1  0
 23 33  1  0
 33 34  1  0
 27 35  2  0
M  END
> <From>
www.bindingDB.org

> <BindingDB Reactant_set_id>
50405186

> <Ligand InChI>
InChI=1S/C24H26ClN5O4S/c1-14(2)35(32,33)21-7-5-4-6-18(21)28-23-17(25)13-27-24(30-23)29-19-10-15-8-9-26-22(31)12-16(15)11-20(19)34-3/h4-7,10-11,13-14H,8-9,12H2,1-3H3,(H,26,31)(H2,27,28,29,30)

> <Ligand InChI Key>
OIPVNLQCUGTYJW-UHFFFAOYSA-N

> <BindingDB MonomerID>
50116678

> <BindingDB Ligand Name>
CHEMBL3608521::US10053458, 66

> <Target Name Assigned by Curator or DataSource>
ALK tyrosine kinase receptor

> <Target Source Organism According to Curator or DataSource>
Homo sapiens

> <Ki (nM)>


> <IC50 (nM)>
 15

> <Kd (nM)>


> <EC50 (nM)>


> <kon (M-1-s-1)>


> <koff (s-1)>


> <pH>


> <Temp C>


> <Curation/DataSource>
ChEMBL

> <Article DOI>
10.1016/j.bmcl.2015.07.004

> <PMID>
26235945

> <PubChem AID>


> <Patent Number>


> <Authors>
Kang, GA; Lee, M; Song, D; Lee, HK; Ahn, S; Park, CH; Lee, CO; Yun, CS; Jung, H; Kim, P; Ha, JD; Cho, SY; Kim, HR; Hwang, JY

> <Institution>
Korea Research Institute of Chemical Technology

> <Link to Ligand in BindingDB>
http://www.bindingdb.org/bind/chemsearch/marvin/MolStructure.jsp?monomerid=50116678

> <Link to Ligand-Target Pair in BindingDB>
http://www.bindingdb.org/jsp/dbsearch/PrimarySearch_ki.jsp?energyterm=kJ/mole&tag=pol&polymerid=5809&target=ALK+tyrosine+kinase+receptor&column=ki&startPg=0&Increment=50&submit=Search

> <Link to Ligand-Target Pair in BindingDB>
http://www.bindingdb.org/jsp/dbsearch/PrimarySearch_ki.jsp?energyterm=kJ/mole&tag=r21&monomerid=50116678&enzyme=ALK+tyrosine+kinase+receptor&column=ki&startPg=0&Increment=50&submit=Search

> <Ligand HET ID in PDB>


> <PDB ID(s) for Ligand-Target Complex>


> <PubChem CID>
122186936

> <PubChem SID>
319494326

> <ChEBI ID of Ligand>


> <ChEMBL ID of Ligand>
CHEMBL3608521

> <DrugBank ID of Ligand>


> <IUPHAR_GRAC ID of Ligand>


> <KEGG ID of Ligand>


> <ZINC ID of Ligand>


> <Number of Protein Chains in Target (>1 implies a multichain complex)>
1

> <BindingDB Target Chain Sequence>
MGAIGLLWLLPLLLSTAAVGSGMGTGQRAGSPAAGPPLQPREPLSYSRLQRKSLAVDFVVPSLFRVYARDLLLPPSSSELKAGRPEARGSLALDCAPLLRLLGPAPGVSWTAGSPAPAEARTLSRVLKGGSVRKLRRAKQLVLELGEEAILEGCVGPPGEAAVGLLQFNLSELFSWWIRQGEGRLRIRLMPEKKASEVGREGRLSAAIRASQPRLLFQIFGTGHSSLESPTNMPSPSPDYFTWNLTWIMKDSFPFLSHRSRYGLECSFDFPCELEYSPPLHDLRNQSWSWRRIPSEEASQMDLLDGPGAERSKEMPRGSFLLLNTSADSKHTILSPWMRSSSEHCTLAVSVHRHLQPSGRYIAQLLPHNEAAREILLMPTPGKHGWTVLQGRIGRPDNPFRVALEYISSGNRSLSAVDFFALKNCSEGTSPGSKMALQSSFTCWNGTVLQLGQACDFHQDCAQGEDESQMCRKLPVGFYCNFEDGFCGWTQGTLSPHTPQWQVRTLKDARFQDHQDHALLLSTTDVPASESATVTSATFPAPIKSSPCELRMSWLIRGVLRGNVSLVLVENKTGKEQGRMVWHVAAYEGLSLWQWMVLPLLDVSDRFWLQMVAWWGQGSRAIVAFDNISISLDCYLTISGEDKILQNTAPKSRNLFERNPNKELKPGENSPRQTPIFDPTVHWLFTTCGASGPHGPTQAQCNNAYQNSNLSVEVGSEGPLKGIQIWKVPATDTYSISGYGAAGGKGGKNTMMRSHGVSVLGIFNLEKDDMLYILVGQQGEDACPSTNQLIQKVCIGENNVIEEEIRVNRSVHEWAGGGGGGGGATYVFKMKDGVPVPLIIAAGGGGRAYGAKTDTFHPERLENNSSVLGLNGNSGAAGGGGGWNDNTSLLWAGKSLQEGATGGHSCPQAMKKWGWETRGGFGGGGGGCSSGGGGGGYIGGNAASNNDPEMDGEDGVSFISPLGILYTPALKVMEGHGEVNIKHYLNCSHCEVDECHMDPESHKVICFCDHGTVLAEDGVSCIVSPTPEPHLPLSLILSVVTSALVAALVLAFSGIMIVYRRKHQELQAMQMELQSPEYKLSKLRTSTIMTDYNPNYCFAGKTSSISDLKEVPRKNITLIRGLGHGAFGEVYEGQVSGMPNDPSPLQVAVKTLPEVCSEQDELDFLMEALIISKFNHQNIVRCIGVSLQSLPRFILLELMAGGDLKSFLRETRPRPSQPSSLAMLDLLHVARDIACGCQYLEENHFIHRDIAARNCLLTCPGPGRVAKIGDFGMARDIYRASYYRKGGCAMLPVKWMPPEAFMEGIFTSKTDTWSFGVLLWEIFSLGYMPYPSKSNQEVLEFVTSGGRMDPPKNCPGPVYRIMTQCWQHQPEDRPNFAIILERIEYCTQDPDVINTALPIEYGPLVEEEEKVPVRPKDPEGVPPLLVSQQAKREEERSPAAPPPLPTTSSGKAAKKPTAAEISVRVPRGPAVEGGHVNMAFSQSNPPSELHKVHGSRNKPTSLWNPTYGSWFTEKPTKKNNPIAKKEPHDRGNLGLEGSCTVPPNVATGRLPGASLLLEPSSLTANMKEVPLFRLRHFPCGNVNYGYQQQGLPLEAATAPGAGHYEDTILKSKNSMNQPGP

> <PDB ID(s) of Target Chain>
2XB7,2XBA,3AOX,5FTO,5FTQ,6E0R,6EBW,6EDL,6MX8

> <UniProt (SwissProt) Recommended Name of Target Chain>
ALK tyrosine kinase receptor

> <UniProt (SwissProt) Entry Name of Target Chain>
ALK_HUMAN

> <UniProt (SwissProt) Primary ID of Target Chain>
Q9UM73

> <UniProt (SwissProt) Secondary ID(s) of Target Chain>
Q4ZFX9,Q53QQ6,Q53RZ4,Q59FI3,Q9Y4K6

> <UniProt (SwissProt) Alternative ID(s) of Target Chain>


> <UniProt (TrEMBL) Submitted Name of Target Chain>


> <UniProt (TrEMBL) Entry Name of Target Chain>


> <UniProt (TrEMBL) Primary ID of Target Chain>


> <UniProt (TrEMBL) Secondary ID(s) of Target Chain>


> <UniProt (TrEMBL) Alternative ID(s) of Target Chain>


$$$$

  SciTegic04201609482D

 34 37  0  0  0  0            999 V2000
   -4.1157    6.0164    0.0000 C   0  0
   -5.4175    5.2712    0.0000 C   0  0
   -5.4230    3.7712    0.0000 N   0  0
   -4.1268    3.0163    0.0000 C   0  0
   -2.8250    3.7616    0.0000 N   0  0
   -2.8195    5.2616    0.0000 C   0  0
   -4.1113    7.2164    0.0000 Cl  0  0
   -4.1292    1.5155    0.0000 N   0  0
   -1.5154    6.0046    0.0000 N   0  0
   -0.2195    5.2476    0.0000 C   0  0
   -0.2301    3.7475    0.0000 C   0  0
    1.0635    2.9883    0.0000 C   0  0
    2.3679    3.7290    0.0000 C   0  0
    2.3786    5.2290    0.0000 C   0  0
    1.0849    5.9882    0.0000 C   0  0
    1.0957    7.4890    0.0000 S   0  0
    2.4003    8.2309    0.0000 C   0  0
    2.4089    9.4309    0.0000 C   0  0
    3.4354    7.6238    0.0000 C   0  0
    1.1037    8.6890    0.0000 O   0  0
    0.0606    8.0961    0.0000 O   0  0
   -2.8315    0.7623    0.0000 C   0  0
   -2.8315   -0.7623    0.0000 C   0  0
   -1.4884   -1.5247    0.0000 C   0  0
   -1.4884    1.5247    0.0000 C   0  0
    0.7442   -1.6517    0.0000 C   0  0
    2.2325   -1.4158    0.0000 N   0  0
    2.9404    0.0000    0.0000 C   0  0
    0.0000   -0.7623    0.0000 C   0  0
    0.0000    0.7623    0.0000 C   0  0
    0.7805    1.6880    0.0000 C   0  0
    2.2507    1.3976    0.0000 C   0  0
   -4.1292   -1.5155    0.0000 O   0  0
   -4.1273   -2.7155    0.0000 C   0  0
  1  2  2  0
  2  3  1  0
  3  4  2  0
  4  5  1  0
  5  6  2  0
  6  1  1  0
  1  7  1  0
  4  8  1  0
  6  9  1  0
  9 10  1  0
 10 11  2  0
 11 12  1  0
 12 13  2  0
 13 14  1  0
 14 15  2  0
 15 10  1  0
 15 16  1  0
 16 17  1  0
 17 18  1  0
 17 19  1  0
 16 20  2  0
 16 21  2  0
  8 22  1  0
 22 23  2  0
 23 24  1  0
 24 29  2  0
 30 25  2  0
 25 22  1  0
 26 27  1  0
 27 28  1  0
 26 29  1  0
 30 31  1  0
 31 32  1  0
 32 28  1  0
 29 30  1  0
 23 33  1  0
 33 34  1  0
M  END
> <From>
www.bindingDB.org

> <BindingDB Reactant_set_id>
490452

> <Ligand InChI>
InChI=1S/C24H28ClN5O3S/c1-15(2)34(31,32)22-9-5-4-8-19(22)28-23-18(25)14-27-24(30-23)29-20-11-16-7-6-10-26-13-17(16)12-21(20)33-3/h4-5,8-9,11-12,14-15,26H,6-7,10,13H2,1-3H3,(H2,27,28,29,30)

> <Ligand InChI Key>
MMJWRPJCZSSSNA-UHFFFAOYSA-N

> <BindingDB MonomerID>
50116679

> <BindingDB Ligand Name>
CHEMBL3608522::US10053458, 47

> <Target Name Assigned by Curator or DataSource>
ALK tyrosine kinase receptor

> <Target Source Organism According to Curator or DataSource>
Homo sapiens

> <Ki (nM)>


> <IC50 (nM)>
<10.00

> <Kd (nM)>


> <EC50 (nM)>


> <kon (M-1-s-1)>


> <koff (s-1)>


> <pH>


> <Temp C>
25.00

> <Curation/DataSource>
US Patent

> <Article DOI>


> <PMID>


> <PubChem AID>


> <Patent Number>
US10053458

> <Authors>
Yun, CS; Kim, HR; Cho, SY; Jung, HJ; Lee, K; Chae, CH; Lee, CO; Park, CH; Kim, P; Hwang, JY; Ha, JD; Ahn, SJ

> <Institution>
KOREA RESEARCH INSTITUTE OF CHEMICAL TECHNOLOGY

> <Link to Ligand in BindingDB>
http://www.bindingdb.org/bind/chemsearch/marvin/MolStructure.jsp?monomerid=50116679

> <Link to Ligand-Target Pair in BindingDB>
http://www.bindingdb.org/jsp/dbsearch/PrimarySearch_ki.jsp?energyterm=kJ/mole&tag=pol&polymerid=5809&target=ALK+tyrosine+kinase+receptor&column=ki&startPg=0&Increment=50&submit=Search

> <Link to Ligand-Target Pair in BindingDB>
http://www.bindingdb.org/jsp/dbsearch/PrimarySearch_ki.jsp?energyterm=kJ/mole&tag=r21&monomerid=50116679&enzyme=ALK+tyrosine+kinase+receptor&column=ki&startPg=0&Increment=50&submit=Search

> <Ligand HET ID in PDB>


> <PDB ID(s) for Ligand-Target Complex>


> <PubChem CID>
122186937

> <PubChem SID>
319494327

> <ChEBI ID of Ligand>


> <ChEMBL ID of Ligand>
CHEMBL3608522

> <DrugBank ID of Ligand>


> <IUPHAR_GRAC ID of Ligand>


> <KEGG ID of Ligand>


> <ZINC ID of Ligand>


> <Number of Protein Chains in Target (>1 implies a multichain complex)>
1

> <BindingDB Target Chain Sequence>
MGAIGLLWLLPLLLSTAAVGSGMGTGQRAGSPAAGPPLQPREPLSYSRLQRKSLAVDFVVPSLFRVYARDLLLPPSSSELKAGRPEARGSLALDCAPLLRLLGPAPGVSWTAGSPAPAEARTLSRVLKGGSVRKLRRAKQLVLELGEEAILEGCVGPPGEAAVGLLQFNLSELFSWWIRQGEGRLRIRLMPEKKASEVGREGRLSAAIRASQPRLLFQIFGTGHSSLESPTNMPSPSPDYFTWNLTWIMKDSFPFLSHRSRYGLECSFDFPCELEYSPPLHDLRNQSWSWRRIPSEEASQMDLLDGPGAERSKEMPRGSFLLLNTSADSKHTILSPWMRSSSEHCTLAVSVHRHLQPSGRYIAQLLPHNEAAREILLMPTPGKHGWTVLQGRIGRPDNPFRVALEYISSGNRSLSAVDFFALKNCSEGTSPGSKMALQSSFTCWNGTVLQLGQACDFHQDCAQGEDESQMCRKLPVGFYCNFEDGFCGWTQGTLSPHTPQWQVRTLKDARFQDHQDHALLLSTTDVPASESATVTSATFPAPIKSSPCELRMSWLIRGVLRGNVSLVLVENKTGKEQGRMVWHVAAYEGLSLWQWMVLPLLDVSDRFWLQMVAWWGQGSRAIVAFDNISISLDCYLTISGEDKILQNTAPKSRNLFERNPNKELKPGENSPRQTPIFDPTVHWLFTTCGASGPHGPTQAQCNNAYQNSNLSVEVGSEGPLKGIQIWKVPATDTYSISGYGAAGGKGGKNTMMRSHGVSVLGIFNLEKDDMLYILVGQQGEDACPSTNQLIQKVCIGENNVIEEEIRVNRSVHEWAGGGGGGGGATYVFKMKDGVPVPLIIAAGGGGRAYGAKTDTFHPERLENNSSVLGLNGNSGAAGGGGGWNDNTSLLWAGKSLQEGATGGHSCPQAMKKWGWETRGGFGGGGGGCSSGGGGGGYIGGNAASNNDPEMDGEDGVSFISPLGILYTPALKVMEGHGEVNIKHYLNCSHCEVDECHMDPESHKVICFCDHGTVLAEDGVSCIVSPTPEPHLPLSLILSVVTSALVAALVLAFSGIMIVYRRKHQELQAMQMELQSPEYKLSKLRTSTIMTDYNPNYCFAGKTSSISDLKEVPRKNITLIRGLGHGAFGEVYEGQVSGMPNDPSPLQVAVKTLPEVCSEQDELDFLMEALIISKFNHQNIVRCIGVSLQSLPRFILLELMAGGDLKSFLRETRPRPSQPSSLAMLDLLHVARDIACGCQYLEENHFIHRDIAARNCLLTCPGPGRVAKIGDFGMARDIYRASYYRKGGCAMLPVKWMPPEAFMEGIFTSKTDTWSFGVLLWEIFSLGYMPYPSKSNQEVLEFVTSGGRMDPPKNCPGPVYRIMTQCWQHQPEDRPNFAIILERIEYCTQDPDVINTALPIEYGPLVEEEEKVPVRPKDPEGVPPLLVSQQAKREEERSPAAPPPLPTTSSGKAAKKPTAAEISVRVPRGPAVEGGHVNMAFSQSNPPSELHKVHGSRNKPTSLWNPTYGSWFTEKPTKKNNPIAKKEPHDRGNLGLEGSCTVPPNVATGRLPGASLLLEPSSLTANMKEVPLFRLRHFPCGNVNYGYQQQGLPLEAATAPGAGHYEDTILKSKNSMNQPGP

> <PDB ID(s) of Target Chain>
2XB7,2XBA,3AOX,5FTO,5FTQ,6E0R,6EBW,6EDL,6MX8

> <UniProt (SwissProt) Recommended Name of Target Chain>
ALK tyrosine kinase receptor

> <UniProt (SwissProt) Entry Name of Target Chain>
ALK_HUMAN

> <UniProt (SwissProt) Primary ID of Target Chain>
Q9UM73

> <UniProt (SwissProt) Secondary ID(s) of Target Chain>
Q4ZFX9,Q53QQ6,Q53RZ4,Q59FI3,Q9Y4K6

> <UniProt (SwissProt) Alternative ID(s) of Target Chain>


> <UniProt (TrEMBL) Submitted Name of Target Chain>


> <UniProt (TrEMBL) Entry Name of Target Chain>


> <UniProt (TrEMBL) Primary ID of Target Chain>


> <UniProt (TrEMBL) Secondary ID(s) of Target Chain>


> <UniProt (TrEMBL) Alternative ID(s) of Target Chain>


$$$$

  SciTegic04201609482D

 34 37  0  0  0  0            999 V2000
   -4.1157    6.0164    0.0000 C   0  0
   -5.4175    5.2712    0.0000 C   0  0
   -5.4230    3.7712    0.0000 N   0  0
   -4.1268    3.0163    0.0000 C   0  0
   -2.8250    3.7616    0.0000 N   0  0
   -2.8195    5.2616    0.0000 C   0  0
   -4.1113    7.2164    0.0000 Cl  0  0
   -4.1292    1.5155    0.0000 N   0  0
   -1.5154    6.0046    0.0000 N   0  0
   -0.2195    5.2476    0.0000 C   0  0
   -0.2301    3.7475    0.0000 C   0  0
    1.0635    2.9883    0.0000 C   0  0
    2.3679    3.7290    0.0000 C   0  0
    2.3786    5.2290    0.0000 C   0  0
    1.0849    5.9882    0.0000 C   0  0
    1.0957    7.4890    0.0000 S   0  0
    2.4003    8.2309    0.0000 C   0  0
    2.4089    9.4309    0.0000 C   0  0
    3.4354    7.6238    0.0000 C   0  0
    1.1037    8.6890    0.0000 O   0  0
    0.0606    8.0961    0.0000 O   0  0
   -2.8315    0.7623    0.0000 C   0  0
   -2.8315   -0.7623    0.0000 C   0  0
   -1.4884   -1.5247    0.0000 C   0  0
   -1.4884    1.5247    0.0000 C   0  0
    0.7442   -1.6517    0.0000 C   0  0
    2.2325   -1.4158    0.0000 C   0  0
    2.9404    0.0000    0.0000 C   0  0
    0.0000   -0.7623    0.0000 C   0  0
    0.0000    0.7623    0.0000 C   0  0
    0.7805    1.6880    0.0000 C   0  0
    2.2507    1.3976    0.0000 N   0  0
   -4.1292   -1.5155    0.0000 O   0  0
   -4.1273   -2.7155    0.0000 C   0  0
  1  2  2  0
  2  3  1  0
  3  4  2  0
  4  5  1  0
  5  6  2  0
  6  1  1  0
  1  7  1  0
  4  8  1  0
  6  9  1  0
  9 10  1  0
 10 11  2  0
 11 12  1  0
 12 13  2  0
 13 14  1  0
 14 15  2  0
 15 10  1  0
 15 16  1  0
 16 17  1  0
 17 18  1  0
 17 19  1  0
 16 20  2  0
 16 21  2  0
  8 22  1  0
 22 23  2  0
 23 24  1  0
 24 29  2  0
 30 25  2  0
 25 22  1  0
 26 27  1  0
 27 28  1  0
 26 29  1  0
 30 31  1  0
 31 32  1  0
 32 28  1  0
 29 30  1  0
 23 33  1  0
 33 34  1  0
M  END
> <From>
www.bindingDB.org

> <BindingDB Reactant_set_id>
490470

> <Ligand InChI>
InChI=1S/C24H28ClN5O3S/c1-15(2)34(31,32)22-9-5-4-8-19(22)28-23-18(25)14-27-24(30-23)29-20-11-17-13-26-10-6-7-16(17)12-21(20)33-3/h4-5,8-9,11-12,14-15,26H,6-7,10,13H2,1-3H3,(H2,27,28,29,30)

> <Ligand InChI Key>
CENVUXSKJJMKIU-UHFFFAOYSA-N

> <BindingDB MonomerID>
50116680

> <BindingDB Ligand Name>
CHEMBL3608523::US10053458, 56

> <Target Name Assigned by Curator or DataSource>
ALK tyrosine kinase receptor

> <Target Source Organism According to Curator or DataSource>
Homo sapiens

> <Ki (nM)>


> <IC50 (nM)>
<10.00

> <Kd (nM)>


> <EC50 (nM)>


> <kon (M-1-s-1)>


> <koff (s-1)>


> <pH>


> <Temp C>
25.00

> <Curation/DataSource>
US Patent

> <Article DOI>


> <PMID>


> <PubChem AID>


> <Patent Number>
US10053458

> <Authors>
Yun, CS; Kim, HR; Cho, SY; Jung, HJ; Lee, K; Chae, CH; Lee, CO; Park, CH; Kim, P; Hwang, JY; Ha, JD; Ahn, SJ

> <Institution>
KOREA RESEARCH INSTITUTE OF CHEMICAL TECHNOLOGY

> <Link to Ligand in BindingDB>
http://www.bindingdb.org/bind/chemsearch/marvin/MolStructure.jsp?monomerid=50116680

> <Link to Ligand-Target Pair in BindingDB>
http://www.bindingdb.org/jsp/dbsearch/PrimarySearch_ki.jsp?energyterm=kJ/mole&tag=pol&polymerid=5809&target=ALK+tyrosine+kinase+receptor&column=ki&startPg=0&Increment=50&submit=Search

> <Link to Ligand-Target Pair in BindingDB>
http://www.bindingdb.org/jsp/dbsearch/PrimarySearch_ki.jsp?energyterm=kJ/mole&tag=r21&monomerid=50116680&enzyme=ALK+tyrosine+kinase+receptor&column=ki&startPg=0&Increment=50&submit=Search

> <Ligand HET ID in PDB>


> <PDB ID(s) for Ligand-Target Complex>


> <PubChem CID>
122186938

> <PubChem SID>
319494328

> <ChEBI ID of Ligand>


> <ChEMBL ID of Ligand>
CHEMBL3608523

> <DrugBank ID of Ligand>


> <IUPHAR_GRAC ID of Ligand>


> <KEGG ID of Ligand>


> <ZINC ID of Ligand>


> <Number of Protein Chains in Target (>1 implies a multichain complex)>
1

> <BindingDB Target Chain Sequence>
MGAIGLLWLLPLLLSTAAVGSGMGTGQRAGSPAAGPPLQPREPLSYSRLQRKSLAVDFVVPSLFRVYARDLLLPPSSSELKAGRPEARGSLALDCAPLLRLLGPAPGVSWTAGSPAPAEARTLSRVLKGGSVRKLRRAKQLVLELGEEAILEGCVGPPGEAAVGLLQFNLSELFSWWIRQGEGRLRIRLMPEKKASEVGREGRLSAAIRASQPRLLFQIFGTGHSSLESPTNMPSPSPDYFTWNLTWIMKDSFPFLSHRSRYGLECSFDFPCELEYSPPLHDLRNQSWSWRRIPSEEASQMDLLDGPGAERSKEMPRGSFLLLNTSADSKHTILSPWMRSSSEHCTLAVSVHRHLQPSGRYIAQLLPHNEAAREILLMPTPGKHGWTVLQGRIGRPDNPFRVALEYISSGNRSLSAVDFFALKNCSEGTSPGSKMALQSSFTCWNGTVLQLGQACDFHQDCAQGEDESQMCRKLPVGFYCNFEDGFCGWTQGTLSPHTPQWQVRTLKDARFQDHQDHALLLSTTDVPASESATVTSATFPAPIKSSPCELRMSWLIRGVLRGNVSLVLVENKTGKEQGRMVWHVAAYEGLSLWQWMVLPLLDVSDRFWLQMVAWWGQGSRAIVAFDNISISLDCYLTISGEDKILQNTAPKSRNLFERNPNKELKPGENSPRQTPIFDPTVHWLFTTCGASGPHGPTQAQCNNAYQNSNLSVEVGSEGPLKGIQIWKVPATDTYSISGYGAAGGKGGKNTMMRSHGVSVLGIFNLEKDDMLYILVGQQGEDACPSTNQLIQKVCIGENNVIEEEIRVNRSVHEWAGGGGGGGGATYVFKMKDGVPVPLIIAAGGGGRAYGAKTDTFHPERLENNSSVLGLNGNSGAAGGGGGWNDNTSLLWAGKSLQEGATGGHSCPQAMKKWGWETRGGFGGGGGGCSSGGGGGGYIGGNAASNNDPEMDGEDGVSFISPLGILYTPALKVMEGHGEVNIKHYLNCSHCEVDECHMDPESHKVICFCDHGTVLAEDGVSCIVSPTPEPHLPLSLILSVVTSALVAALVLAFSGIMIVYRRKHQELQAMQMELQSPEYKLSKLRTSTIMTDYNPNYCFAGKTSSISDLKEVPRKNITLIRGLGHGAFGEVYEGQVSGMPNDPSPLQVAVKTLPEVCSEQDELDFLMEALIISKFNHQNIVRCIGVSLQSLPRFILLELMAGGDLKSFLRETRPRPSQPSSLAMLDLLHVARDIACGCQYLEENHFIHRDIAARNCLLTCPGPGRVAKIGDFGMARDIYRASYYRKGGCAMLPVKWMPPEAFMEGIFTSKTDTWSFGVLLWEIFSLGYMPYPSKSNQEVLEFVTSGGRMDPPKNCPGPVYRIMTQCWQHQPEDRPNFAIILERIEYCTQDPDVINTALPIEYGPLVEEEEKVPVRPKDPEGVPPLLVSQQAKREEERSPAAPPPLPTTSSGKAAKKPTAAEISVRVPRGPAVEGGHVNMAFSQSNPPSELHKVHGSRNKPTSLWNPTYGSWFTEKPTKKNNPIAKKEPHDRGNLGLEGSCTVPPNVATGRLPGASLLLEPSSLTANMKEVPLFRLRHFPCGNVNYGYQQQGLPLEAATAPGAGHYEDTILKSKNSMNQPGP

> <PDB ID(s) of Target Chain>
2XB7,2XBA,3AOX,5FTO,5FTQ,6E0R,6EBW,6EDL,6MX8

> <UniProt (SwissProt) Recommended Name of Target Chain>
ALK tyrosine kinase receptor

> <UniProt (SwissProt) Entry Name of Target Chain>
ALK_HUMAN

> <UniProt (SwissProt) Primary ID of Target Chain>
Q9UM73

> <UniProt (SwissProt) Secondary ID(s) of Target Chain>
Q4ZFX9,Q53QQ6,Q53RZ4,Q59FI3,Q9Y4K6

> <UniProt (SwissProt) Alternative ID(s) of Target Chain>


> <UniProt (TrEMBL) Submitted Name of Target Chain>


> <UniProt (TrEMBL) Entry Name of Target Chain>


> <UniProt (TrEMBL) Primary ID of Target Chain>


> <UniProt (TrEMBL) Secondary ID(s) of Target Chain>


> <UniProt (TrEMBL) Alternative ID(s) of Target Chain>


$$$$

  SciTegic04201609482D

 34 37  0  0  0  0            999 V2000
   -4.1157    6.0164    0.0000 C   0  0
   -5.4175    5.2712    0.0000 C   0  0
   -5.4230    3.7712    0.0000 N   0  0
   -4.1268    3.0163    0.0000 C   0  0
   -2.8250    3.7616    0.0000 N   0  0
   -2.8195    5.2616    0.0000 C   0  0
   -4.1113    7.2164    0.0000 Cl  0  0
   -4.1292    1.5155    0.0000 N   0  0
   -1.5154    6.0046    0.0000 N   0  0
   -0.2195    5.2476    0.0000 C   0  0
   -0.2301    3.7475    0.0000 C   0  0
    1.0635    2.9883    0.0000 C   0  0
    2.3679    3.7290    0.0000 C   0  0
    2.3786    5.2290    0.0000 C   0  0
    1.0849    5.9882    0.0000 C   0  0
    1.0957    7.4890    0.0000 S   0  0
    2.4003    8.2309    0.0000 C   0  0
    2.4089    9.4309    0.0000 C   0  0
    3.4354    7.6238    0.0000 C   0  0
    1.1037    8.6890    0.0000 O   0  0
    0.0606    8.0961    0.0000 O   0  0
   -2.8315    0.7623    0.0000 C   0  0
   -2.8315   -0.7623    0.0000 C   0  0
   -1.4884   -1.5247    0.0000 C   0  0
   -1.4884    1.5247    0.0000 C   0  0
    0.7442   -1.6517    0.0000 C   0  0
    2.2325   -1.4158    0.0000 C   0  0
    2.9404    0.0000    0.0000 N   0  0
    0.0000   -0.7623    0.0000 C   0  0
    0.0000    0.7623    0.0000 C   0  0
    0.7805    1.6880    0.0000 C   0  0
    2.2507    1.3976    0.0000 C   0  0
   -4.1292   -1.5155    0.0000 O   0  0
   -4.1273   -2.7155    0.0000 C   0  0
  1  2  2  0
  2  3  1  0
  3  4  2  0
  4  5  1  0
  5  6  2  0
  6  1  1  0
  1  7  1  0
  4  8  1  0
  6  9  1  0
  9 10  1  0
 10 11  2  0
 11 12  1  0
 12 13  2  0
 13 14  1  0
 14 15  2  0
 15 10  1  0
 15 16  1  0
 16 17  1  0
 17 18  1  0
 17 19  1  0
 16 20  2  0
 16 21  2  0
  8 22  1  0
 22 23  2  0
 23 24  1  0
 24 29  2  0
 30 25  2  0
 25 22  1  0
 26 27  1  0
 27 28  1  0
 26 29  1  0
 30 31  1  0
 31 32  1  0
 32 28  1  0
 29 30  1  0
 23 33  1  0
 33 34  1  0
M  END
> <From>
www.bindingDB.org

> <BindingDB Reactant_set_id>
490488

> <Ligand InChI>
InChI=1S/C24H28ClN5O3S/c1-15(2)34(31,32)22-7-5-4-6-19(22)28-23-18(25)14-27-24(30-23)29-20-12-16-8-10-26-11-9-17(16)13-21(20)33-3/h4-7,12-15,26H,8-11H2,1-3H3,(H2,27,28,29,30)

> <Ligand InChI Key>
IXPKKOYDMRELAG-UHFFFAOYSA-N

> <BindingDB MonomerID>
50116681

> <BindingDB Ligand Name>
CHEMBL3608524::US10053458, 65

> <Target Name Assigned by Curator or DataSource>
ALK tyrosine kinase receptor

> <Target Source Organism According to Curator or DataSource>
Homo sapiens

> <Ki (nM)>


> <IC50 (nM)>
<10.00

> <Kd (nM)>


> <EC50 (nM)>


> <kon (M-1-s-1)>


> <koff (s-1)>


> <pH>


> <Temp C>
25.00

> <Curation/DataSource>
US Patent

> <Article DOI>


> <PMID>


> <PubChem AID>


> <Patent Number>
US10053458

> <Authors>
Yun, CS; Kim, HR; Cho, SY; Jung, HJ; Lee, K; Chae, CH; Lee, CO; Park, CH; Kim, P; Hwang, JY; Ha, JD; Ahn, SJ

> <Institution>
KOREA RESEARCH INSTITUTE OF CHEMICAL TECHNOLOGY

> <Link to Ligand in BindingDB>
http://www.bindingdb.org/bind/chemsearch/marvin/MolStructure.jsp?monomerid=50116681

> <Link to Ligand-Target Pair in BindingDB>
http://www.bindingdb.org/jsp/dbsearch/PrimarySearch_ki.jsp?energyterm=kJ/mole&tag=pol&polymerid=5809&target=ALK+tyrosine+kinase+receptor&column=ki&startPg=0&Increment=50&submit=Search

> <Link to Ligand-Target Pair in BindingDB>
http://www.bindingdb.org/jsp/dbsearch/PrimarySearch_ki.jsp?energyterm=kJ/mole&tag=r21&monomerid=50116681&enzyme=ALK+tyrosine+kinase+receptor&column=ki&startPg=0&Increment=50&submit=Search

> <Ligand HET ID in PDB>


> <PDB ID(s) for Ligand-Target Complex>


> <PubChem CID>
122186939

> <PubChem SID>
319494329

> <ChEBI ID of Ligand>


> <ChEMBL ID of Ligand>
CHEMBL3608524

> <DrugBank ID of Ligand>


> <IUPHAR_GRAC ID of Ligand>


> <KEGG ID of Ligand>


> <ZINC ID of Ligand>


> <Number of Protein Chains in Target (>1 implies a multichain complex)>
1

> <BindingDB Target Chain Sequence>
MGAIGLLWLLPLLLSTAAVGSGMGTGQRAGSPAAGPPLQPREPLSYSRLQRKSLAVDFVVPSLFRVYARDLLLPPSSSELKAGRPEARGSLALDCAPLLRLLGPAPGVSWTAGSPAPAEARTLSRVLKGGSVRKLRRAKQLVLELGEEAILEGCVGPPGEAAVGLLQFNLSELFSWWIRQGEGRLRIRLMPEKKASEVGREGRLSAAIRASQPRLLFQIFGTGHSSLESPTNMPSPSPDYFTWNLTWIMKDSFPFLSHRSRYGLECSFDFPCELEYSPPLHDLRNQSWSWRRIPSEEASQMDLLDGPGAERSKEMPRGSFLLLNTSADSKHTILSPWMRSSSEHCTLAVSVHRHLQPSGRYIAQLLPHNEAAREILLMPTPGKHGWTVLQGRIGRPDNPFRVALEYISSGNRSLSAVDFFALKNCSEGTSPGSKMALQSSFTCWNGTVLQLGQACDFHQDCAQGEDESQMCRKLPVGFYCNFEDGFCGWTQGTLSPHTPQWQVRTLKDARFQDHQDHALLLSTTDVPASESATVTSATFPAPIKSSPCELRMSWLIRGVLRGNVSLVLVENKTGKEQGRMVWHVAAYEGLSLWQWMVLPLLDVSDRFWLQMVAWWGQGSRAIVAFDNISISLDCYLTISGEDKILQNTAPKSRNLFERNPNKELKPGENSPRQTPIFDPTVHWLFTTCGASGPHGPTQAQCNNAYQNSNLSVEVGSEGPLKGIQIWKVPATDTYSISGYGAAGGKGGKNTMMRSHGVSVLGIFNLEKDDMLYILVGQQGEDACPSTNQLIQKVCIGENNVIEEEIRVNRSVHEWAGGGGGGGGATYVFKMKDGVPVPLIIAAGGGGRAYGAKTDTFHPERLENNSSVLGLNGNSGAAGGGGGWNDNTSLLWAGKSLQEGATGGHSCPQAMKKWGWETRGGFGGGGGGCSSGGGGGGYIGGNAASNNDPEMDGEDGVSFISPLGILYTPALKVMEGHGEVNIKHYLNCSHCEVDECHMDPESHKVICFCDHGTVLAEDGVSCIVSPTPEPHLPLSLILSVVTSALVAALVLAFSGIMIVYRRKHQELQAMQMELQSPEYKLSKLRTSTIMTDYNPNYCFAGKTSSISDLKEVPRKNITLIRGLGHGAFGEVYEGQVSGMPNDPSPLQVAVKTLPEVCSEQDELDFLMEALIISKFNHQNIVRCIGVSLQSLPRFILLELMAGGDLKSFLRETRPRPSQPSSLAMLDLLHVARDIACGCQYLEENHFIHRDIAARNCLLTCPGPGRVAKIGDFGMARDIYRASYYRKGGCAMLPVKWMPPEAFMEGIFTSKTDTWSFGVLLWEIFSLGYMPYPSKSNQEVLEFVTSGGRMDPPKNCPGPVYRIMTQCWQHQPEDRPNFAIILERIEYCTQDPDVINTALPIEYGPLVEEEEKVPVRPKDPEGVPPLLVSQQAKREEERSPAAPPPLPTTSSGKAAKKPTAAEISVRVPRGPAVEGGHVNMAFSQSNPPSELHKVHGSRNKPTSLWNPTYGSWFTEKPTKKNNPIAKKEPHDRGNLGLEGSCTVPPNVATGRLPGASLLLEPSSLTANMKEVPLFRLRHFPCGNVNYGYQQQGLPLEAATAPGAGHYEDTILKSKNSMNQPGP

> <PDB ID(s) of Target Chain>
2XB7,2XBA,3AOX,5FTO,5FTQ,6E0R,6EBW,6EDL,6MX8

> <UniProt (SwissProt) Recommended Name of Target Chain>
ALK tyrosine kinase receptor

> <UniProt (SwissProt) Entry Name of Target Chain>
ALK_HUMAN

> <UniProt (SwissProt) Primary ID of Target Chain>
Q9UM73

> <UniProt (SwissProt) Secondary ID(s) of Target Chain>
Q4ZFX9,Q53QQ6,Q53RZ4,Q59FI3,Q9Y4K6

> <UniProt (SwissProt) Alternative ID(s) of Target Chain>


> <UniProt (TrEMBL) Submitted Name of Target Chain>


> <UniProt (TrEMBL) Entry Name of Target Chain>


> <UniProt (TrEMBL) Primary ID of Target Chain>


> <UniProt (TrEMBL) Secondary ID(s) of Target Chain>


> <UniProt (TrEMBL) Alternative ID(s) of Target Chain>


$$$$

  SciTegic04201609482D

 34 37  0  0  0  0            999 V2000
   -4.1157    6.0164    0.0000 C   0  0
   -5.4175    5.2712    0.0000 C   0  0
   -5.4230    3.7712    0.0000 N   0  0
   -4.1268    3.0163    0.0000 C   0  0
   -2.8250    3.7616    0.0000 N   0  0
   -2.8195    5.2616    0.0000 C   0  0
   -4.1113    7.2164    0.0000 Cl  0  0
   -4.1292    1.5155    0.0000 N   0  0
   -1.5154    6.0046    0.0000 N   0  0
   -0.2195    5.2476    0.0000 C   0  0
   -0.2301    3.7475    0.0000 C   0  0
    1.0635    2.9883    0.0000 C   0  0
    2.3679    3.7290    0.0000 C   0  0
    2.3786    5.2290    0.0000 C   0  0
    1.0849    5.9882    0.0000 C   0  0
    1.0957    7.4890    0.0000 S   0  0
    2.4003    8.2309    0.0000 C   0  0
    2.4089    9.4309    0.0000 C   0  0
    3.4354    7.6238    0.0000 C   0  0
    1.1037    8.6890    0.0000 O   0  0
    0.0606    8.0961    0.0000 O   0  0
   -2.8315    0.7623    0.0000 C   0  0
   -2.8315   -0.7623    0.0000 C   0  0
   -1.4884   -1.5247    0.0000 C   0  0
   -1.4884    1.5247    0.0000 C   0  0
    0.7442   -1.6517    0.0000 O   0  0
    2.2325   -1.4158    0.0000 C   0  0
    2.9404    0.0000    0.0000 C   0  0
    0.0000   -0.7623    0.0000 C   0  0
    0.0000    0.7623    0.0000 C   0  0
    0.7805    1.6880    0.0000 C   0  0
    2.2507    1.3976    0.0000 N   0  0
   -4.1292   -1.5155    0.0000 O   0  0
   -4.1273   -2.7155    0.0000 C   0  0
  1  2  2  0
  2  3  1  0
  3  4  2  0
  4  5  1  0
  5  6  2  0
  6  1  1  0
  1  7  1  0
  4  8  1  0
  6  9  1  0
  9 10  1  0
 10 11  2  0
 11 12  1  0
 12 13  2  0
 13 14  1  0
 14 15  2  0
 15 10  1  0
 15 16  1  0
 16 17  1  0
 17 18  1  0
 17 19  1  0
 16 20  2  0
 16 21  2  0
  8 22  1  0
 22 23  2  0
 23 24  1  0
 24 29  2  0
 30 25  2  0
 25 22  1  0
 26 27  1  0
 27 28  1  0
 26 29  1  0
 30 31  1  0
 31 32  1  0
 32 28  1  0
 29 30  1  0
 23 33  1  0
 33 34  1  0
M  END
> <From>
www.bindingDB.org

> <BindingDB Reactant_set_id>
50405190

> <Ligand InChI>
InChI=1S/C23H26ClN5O4S/c1-14(2)34(30,31)21-7-5-4-6-17(21)27-22-16(24)13-26-23(29-22)28-18-10-15-12-25-8-9-33-19(15)11-20(18)32-3/h4-7,10-11,13-14,25H,8-9,12H2,1-3H3,(H2,26,27,28,29)

> <Ligand InChI Key>
QDJZMRPVQLAGDJ-UHFFFAOYSA-N

> <BindingDB MonomerID>
50116682

> <BindingDB Ligand Name>
CHEMBL3608525

> <Target Name Assigned by Curator or DataSource>
ALK tyrosine kinase receptor

> <Target Source Organism According to Curator or DataSource>
Homo sapiens

> <Ki (nM)>


> <IC50 (nM)>
 5.8

> <Kd (nM)>


> <EC50 (nM)>


> <kon (M-1-s-1)>


> <koff (s-1)>


> <pH>


> <Temp C>


> <Curation/DataSource>
ChEMBL

> <Article DOI>
10.1016/j.bmcl.2015.07.004

> <PMID>
26235945

> <PubChem AID>


> <Patent Number>


> <Authors>
Kang, GA; Lee, M; Song, D; Lee, HK; Ahn, S; Park, CH; Lee, CO; Yun, CS; Jung, H; Kim, P; Ha, JD; Cho, SY; Kim, HR; Hwang, JY

> <Institution>
Korea Research Institute of Chemical Technology

> <Link to Ligand in BindingDB>
http://www.bindingdb.org/bind/chemsearch/marvin/MolStructure.jsp?monomerid=50116682

> <Link to Ligand-Target Pair in BindingDB>
http://www.bindingdb.org/jsp/dbsearch/PrimarySearch_ki.jsp?energyterm=kJ/mole&tag=pol&polymerid=5809&target=ALK+tyrosine+kinase+receptor&column=ki&startPg=0&Increment=50&submit=Search

> <Link to Ligand-Target Pair in BindingDB>
http://www.bindingdb.org/jsp/dbsearch/PrimarySearch_ki.jsp?energyterm=kJ/mole&tag=r21&monomerid=50116682&enzyme=ALK+tyrosine+kinase+receptor&column=ki&startPg=0&Increment=50&submit=Search

> <Ligand HET ID in PDB>


> <PDB ID(s) for Ligand-Target Complex>


> <PubChem CID>
122186940

> <PubChem SID>
319494330

> <ChEBI ID of Ligand>


> <ChEMBL ID of Ligand>
CHEMBL3608525

> <DrugBank ID of Ligand>


> <IUPHAR_GRAC ID of Ligand>


> <KEGG ID of Ligand>


> <ZINC ID of Ligand>


> <Number of Protein Chains in Target (>1 implies a multichain complex)>
1

> <BindingDB Target Chain Sequence>
MGAIGLLWLLPLLLSTAAVGSGMGTGQRAGSPAAGPPLQPREPLSYSRLQRKSLAVDFVVPSLFRVYARDLLLPPSSSELKAGRPEARGSLALDCAPLLRLLGPAPGVSWTAGSPAPAEARTLSRVLKGGSVRKLRRAKQLVLELGEEAILEGCVGPPGEAAVGLLQFNLSELFSWWIRQGEGRLRIRLMPEKKASEVGREGRLSAAIRASQPRLLFQIFGTGHSSLESPTNMPSPSPDYFTWNLTWIMKDSFPFLSHRSRYGLECSFDFPCELEYSPPLHDLRNQSWSWRRIPSEEASQMDLLDGPGAERSKEMPRGSFLLLNTSADSKHTILSPWMRSSSEHCTLAVSVHRHLQPSGRYIAQLLPHNEAAREILLMPTPGKHGWTVLQGRIGRPDNPFRVALEYISSGNRSLSAVDFFALKNCSEGTSPGSKMALQSSFTCWNGTVLQLGQACDFHQDCAQGEDESQMCRKLPVGFYCNFEDGFCGWTQGTLSPHTPQWQVRTLKDARFQDHQDHALLLSTTDVPASESATVTSATFPAPIKSSPCELRMSWLIRGVLRGNVSLVLVENKTGKEQGRMVWHVAAYEGLSLWQWMVLPLLDVSDRFWLQMVAWWGQGSRAIVAFDNISISLDCYLTISGEDKILQNTAPKSRNLFERNPNKELKPGENSPRQTPIFDPTVHWLFTTCGASGPHGPTQAQCNNAYQNSNLSVEVGSEGPLKGIQIWKVPATDTYSISGYGAAGGKGGKNTMMRSHGVSVLGIFNLEKDDMLYILVGQQGEDACPSTNQLIQKVCIGENNVIEEEIRVNRSVHEWAGGGGGGGGATYVFKMKDGVPVPLIIAAGGGGRAYGAKTDTFHPERLENNSSVLGLNGNSGAAGGGGGWNDNTSLLWAGKSLQEGATGGHSCPQAMKKWGWETRGGFGGGGGGCSSGGGGGGYIGGNAASNNDPEMDGEDGVSFISPLGILYTPALKVMEGHGEVNIKHYLNCSHCEVDECHMDPESHKVICFCDHGTVLAEDGVSCIVSPTPEPHLPLSLILSVVTSALVAALVLAFSGIMIVYRRKHQELQAMQMELQSPEYKLSKLRTSTIMTDYNPNYCFAGKTSSISDLKEVPRKNITLIRGLGHGAFGEVYEGQVSGMPNDPSPLQVAVKTLPEVCSEQDELDFLMEALIISKFNHQNIVRCIGVSLQSLPRFILLELMAGGDLKSFLRETRPRPSQPSSLAMLDLLHVARDIACGCQYLEENHFIHRDIAARNCLLTCPGPGRVAKIGDFGMARDIYRASYYRKGGCAMLPVKWMPPEAFMEGIFTSKTDTWSFGVLLWEIFSLGYMPYPSKSNQEVLEFVTSGGRMDPPKNCPGPVYRIMTQCWQHQPEDRPNFAIILERIEYCTQDPDVINTALPIEYGPLVEEEEKVPVRPKDPEGVPPLLVSQQAKREEERSPAAPPPLPTTSSGKAAKKPTAAEISVRVPRGPAVEGGHVNMAFSQSNPPSELHKVHGSRNKPTSLWNPTYGSWFTEKPTKKNNPIAKKEPHDRGNLGLEGSCTVPPNVATGRLPGASLLLEPSSLTANMKEVPLFRLRHFPCGNVNYGYQQQGLPLEAATAPGAGHYEDTILKSKNSMNQPGP

> <PDB ID(s) of Target Chain>
2XB7,2XBA,3AOX,5FTO,5FTQ,6E0R,6EBW,6EDL,6MX8

> <UniProt (SwissProt) Recommended Name of Target Chain>
ALK tyrosine kinase receptor

> <UniProt (SwissProt) Entry Name of Target Chain>
ALK_HUMAN

> <UniProt (SwissProt) Primary ID of Target Chain>
Q9UM73

> <UniProt (SwissProt) Secondary ID(s) of Target Chain>
Q4ZFX9,Q53QQ6,Q53RZ4,Q59FI3,Q9Y4K6

> <UniProt (SwissProt) Alternative ID(s) of Target Chain>


> <UniProt (TrEMBL) Submitted Name of Target Chain>


> <UniProt (TrEMBL) Entry Name of Target Chain>


> <UniProt (TrEMBL) Primary ID of Target Chain>


> <UniProt (TrEMBL) Secondary ID(s) of Target Chain>


> <UniProt (TrEMBL) Alternative ID(s) of Target Chain>


$$$$

  SciTegic04201609482D

 36 39  0  0  0  0            999 V2000
   -4.1157    6.0164    0.0000 C   0  0
   -5.4175    5.2712    0.0000 C   0  0
   -5.4230    3.7712    0.0000 N   0  0
   -4.1268    3.0163    0.0000 C   0  0
   -2.8250    3.7616    0.0000 N   0  0
   -2.8195    5.2616    0.0000 C   0  0
   -4.1113    7.2164    0.0000 Cl  0  0
   -4.1292    1.5155    0.0000 N   0  0
   -1.5154    6.0046    0.0000 N   0  0
   -0.2195    5.2476    0.0000 C   0  0
   -0.2301    3.7475    0.0000 C   0  0
    1.0635    2.9883    0.0000 C   0  0
    2.3679    3.7290    0.0000 C   0  0
    2.3786    5.2290    0.0000 C   0  0
    1.0849    5.9882    0.0000 C   0  0
    1.0957    7.4890    0.0000 S   0  0
    2.4003    8.2309    0.0000 C   0  0
    2.4089    9.4309    0.0000 C   0  0
    3.4354    7.6238    0.0000 C   0  0
    1.1037    8.6890    0.0000 O   0  0
    0.0606    8.0961    0.0000 O   0  0
   -2.8315    0.7623    0.0000 C   0  0
   -2.8315   -0.7623    0.0000 C   0  0
   -1.4884   -1.5247    0.0000 C   0  0
   -1.4884    1.5247    0.0000 C   0  0
    0.7442   -1.6517    0.0000 C   0  0
    2.2325   -1.4158    0.0000 N   0  0
    2.9404    0.0000    0.0000 C   0  0
    0.0000   -0.7623    0.0000 C   0  0
    0.0000    0.7623    0.0000 C   0  0
    0.7805    1.6880    0.0000 C   0  0
    2.2507    1.3976    0.0000 C   0  0
   -4.1292   -1.5155    0.0000 O   0  0
   -4.1273   -2.7155    0.0000 C   0  0
    3.1043   -2.6385    0.0000 C   0  0
    4.2989   -2.5249    0.0000 C   0  0
  1  2  2  0
  2  3  1  0
  3  4  2  0
  4  5  1  0
  5  6  2  0
  6  1  1  0
  1  7  1  0
  4  8  1  0
  6  9  1  0
  9 10  1  0
 10 11  2  0
 11 12  1  0
 12 13  2  0
 13 14  1  0
 14 15  2  0
 15 10  1  0
 15 16  1  0
 16 17  1  0
 17 18  1  0
 17 19  1  0
 16 20  2  0
 16 21  2  0
  8 22  1  0
 22 23  2  0
 23 24  1  0
 24 29  2  0
 30 25  2  0
 25 22  1  0
 26 27  1  0
 27 28  1  0
 26 29  1  0
 30 31  1  0
 31 32  1  0
 32 28  1  0
 29 30  1  0
 23 33  1  0
 33 34  1  0
 27 35  1  0
 35 36  1  0
M  END
> <From>
www.bindingDB.org

> <BindingDB Reactant_set_id>
50405191

> <Ligand InChI>
InChI=1S/C26H32ClN5O3S/c1-5-32-12-8-9-18-13-22(23(35-4)14-19(18)16-32)30-26-28-15-20(27)25(31-26)29-21-10-6-7-11-24(21)36(33,34)17(2)3/h6-7,10-11,13-15,17H,5,8-9,12,16H2,1-4H3,(H2,28,29,30,31)

> <Ligand InChI Key>
LXPOMXGDVJAVRC-UHFFFAOYSA-N

> <BindingDB MonomerID>
50116683

> <BindingDB Ligand Name>
CHEMBL3608526::US10053458, 49

> <Target Name Assigned by Curator or DataSource>
ALK tyrosine kinase receptor

> <Target Source Organism According to Curator or DataSource>
Homo sapiens

> <Ki (nM)>


> <IC50 (nM)>
 1400

> <Kd (nM)>


> <EC50 (nM)>


> <kon (M-1-s-1)>


> <koff (s-1)>


> <pH>


> <Temp C>


> <Curation/DataSource>
ChEMBL

> <Article DOI>
10.1016/j.bmcl.2015.07.004

> <PMID>
26235945

> <PubChem AID>


> <Patent Number>


> <Authors>
Kang, GA; Lee, M; Song, D; Lee, HK; Ahn, S; Park, CH; Lee, CO; Yun, CS; Jung, H; Kim, P; Ha, JD; Cho, SY; Kim, HR; Hwang, JY

> <Institution>
Korea Research Institute of Chemical Technology

> <Link to Ligand in BindingDB>
http://www.bindingdb.org/bind/chemsearch/marvin/MolStructure.jsp?monomerid=50116683

> <Link to Ligand-Target Pair in BindingDB>
http://www.bindingdb.org/jsp/dbsearch/PrimarySearch_ki.jsp?energyterm=kJ/mole&tag=pol&polymerid=5809&target=ALK+tyrosine+kinase+receptor&column=ki&startPg=0&Increment=50&submit=Search

> <Link to Ligand-Target Pair in BindingDB>
http://www.bindingdb.org/jsp/dbsearch/PrimarySearch_ki.jsp?energyterm=kJ/mole&tag=r21&monomerid=50116683&enzyme=ALK+tyrosine+kinase+receptor&column=ki&startPg=0&Increment=50&submit=Search

> <Ligand HET ID in PDB>


> <PDB ID(s) for Ligand-Target Complex>


> <PubChem CID>
122186941

> <PubChem SID>
319494331

> <ChEBI ID of Ligand>


> <ChEMBL ID of Ligand>
CHEMBL3608526

> <DrugBank ID of Ligand>


> <IUPHAR_GRAC ID of Ligand>


> <KEGG ID of Ligand>


> <ZINC ID of Ligand>


> <Number of Protein Chains in Target (>1 implies a multichain complex)>
1

> <BindingDB Target Chain Sequence>
MGAIGLLWLLPLLLSTAAVGSGMGTGQRAGSPAAGPPLQPREPLSYSRLQRKSLAVDFVVPSLFRVYARDLLLPPSSSELKAGRPEARGSLALDCAPLLRLLGPAPGVSWTAGSPAPAEARTLSRVLKGGSVRKLRRAKQLVLELGEEAILEGCVGPPGEAAVGLLQFNLSELFSWWIRQGEGRLRIRLMPEKKASEVGREGRLSAAIRASQPRLLFQIFGTGHSSLESPTNMPSPSPDYFTWNLTWIMKDSFPFLSHRSRYGLECSFDFPCELEYSPPLHDLRNQSWSWRRIPSEEASQMDLLDGPGAERSKEMPRGSFLLLNTSADSKHTILSPWMRSSSEHCTLAVSVHRHLQPSGRYIAQLLPHNEAAREILLMPTPGKHGWTVLQGRIGRPDNPFRVALEYISSGNRSLSAVDFFALKNCSEGTSPGSKMALQSSFTCWNGTVLQLGQACDFHQDCAQGEDESQMCRKLPVGFYCNFEDGFCGWTQGTLSPHTPQWQVRTLKDARFQDHQDHALLLSTTDVPASESATVTSATFPAPIKSSPCELRMSWLIRGVLRGNVSLVLVENKTGKEQGRMVWHVAAYEGLSLWQWMVLPLLDVSDRFWLQMVAWWGQGSRAIVAFDNISISLDCYLTISGEDKILQNTAPKSRNLFERNPNKELKPGENSPRQTPIFDPTVHWLFTTCGASGPHGPTQAQCNNAYQNSNLSVEVGSEGPLKGIQIWKVPATDTYSISGYGAAGGKGGKNTMMRSHGVSVLGIFNLEKDDMLYILVGQQGEDACPSTNQLIQKVCIGENNVIEEEIRVNRSVHEWAGGGGGGGGATYVFKMKDGVPVPLIIAAGGGGRAYGAKTDTFHPERLENNSSVLGLNGNSGAAGGGGGWNDNTSLLWAGKSLQEGATGGHSCPQAMKKWGWETRGGFGGGGGGCSSGGGGGGYIGGNAASNNDPEMDGEDGVSFISPLGILYTPALKVMEGHGEVNIKHYLNCSHCEVDECHMDPESHKVICFCDHGTVLAEDGVSCIVSPTPEPHLPLSLILSVVTSALVAALVLAFSGIMIVYRRKHQELQAMQMELQSPEYKLSKLRTSTIMTDYNPNYCFAGKTSSISDLKEVPRKNITLIRGLGHGAFGEVYEGQVSGMPNDPSPLQVAVKTLPEVCSEQDELDFLMEALIISKFNHQNIVRCIGVSLQSLPRFILLELMAGGDLKSFLRETRPRPSQPSSLAMLDLLHVARDIACGCQYLEENHFIHRDIAARNCLLTCPGPGRVAKIGDFGMARDIYRASYYRKGGCAMLPVKWMPPEAFMEGIFTSKTDTWSFGVLLWEIFSLGYMPYPSKSNQEVLEFVTSGGRMDPPKNCPGPVYRIMTQCWQHQPEDRPNFAIILERIEYCTQDPDVINTALPIEYGPLVEEEEKVPVRPKDPEGVPPLLVSQQAKREEERSPAAPPPLPTTSSGKAAKKPTAAEISVRVPRGPAVEGGHVNMAFSQSNPPSELHKVHGSRNKPTSLWNPTYGSWFTEKPTKKNNPIAKKEPHDRGNLGLEGSCTVPPNVATGRLPGASLLLEPSSLTANMKEVPLFRLRHFPCGNVNYGYQQQGLPLEAATAPGAGHYEDTILKSKNSMNQPGP

> <PDB ID(s) of Target Chain>
2XB7,2XBA,3AOX,5FTO,5FTQ,6E0R,6EBW,6EDL,6MX8

> <UniProt (SwissProt) Recommended Name of Target Chain>
ALK tyrosine kinase receptor

> <UniProt (SwissProt) Entry Name of Target Chain>
ALK_HUMAN

> <UniProt (SwissProt) Primary ID of Target Chain>
Q9UM73

> <UniProt (SwissProt) Secondary ID(s) of Target Chain>
Q4ZFX9,Q53QQ6,Q53RZ4,Q59FI3,Q9Y4K6

> <UniProt (SwissProt) Alternative ID(s) of Target Chain>


> <UniProt (TrEMBL) Submitted Name of Target Chain>


> <UniProt (TrEMBL) Entry Name of Target Chain>


> <UniProt (TrEMBL) Primary ID of Target Chain>


> <UniProt (TrEMBL) Secondary ID(s) of Target Chain>


> <UniProt (TrEMBL) Alternative ID(s) of Target Chain>


$$$$

  SciTegic04201609482D

 40 44  0  0  0  0            999 V2000
   -4.1157    6.0164    0.0000 C   0  0
   -5.4175    5.2712    0.0000 C   0  0
   -5.4230    3.7712    0.0000 N   0  0
   -4.1268    3.0163    0.0000 C   0  0
   -2.8250    3.7616    0.0000 N   0  0
   -2.8195    5.2616    0.0000 C   0  0
   -4.1113    7.2164    0.0000 Cl  0  0
   -4.1292    1.5155    0.0000 N   0  0
   -1.5154    6.0046    0.0000 N   0  0
   -0.2195    5.2476    0.0000 C   0  0
   -0.2301    3.7475    0.0000 C   0  0
    1.0635    2.9883    0.0000 C   0  0
    2.3679    3.7290    0.0000 C   0  0
    2.3786    5.2290    0.0000 C   0  0
    1.0849    5.9882    0.0000 C   0  0
    1.0957    7.4890    0.0000 S   0  0
    2.4003    8.2309    0.0000 C   0  0
    2.4089    9.4309    0.0000 C   0  0
    3.4354    7.6238    0.0000 C   0  0
    1.1037    8.6890    0.0000 O   0  0
    0.0606    8.0961    0.0000 O   0  0
   -5.4292    0.7664    0.0000 C   0  0
   -5.4340   -0.7582    0.0000 C   0  0
   -6.7796   -1.5163    0.0000 C   0  0
   -6.7699    1.5330    0.0000 C   0  0
   -9.0125   -1.6362    0.0000 C   0  0
  -10.5001   -1.3956    0.0000 C   0  0
  -11.2035    0.0224    0.0000 C   0  0
   -8.2655   -0.7492    0.0000 C   0  0
   -8.2607    0.7754    0.0000 C   0  0
   -9.0382    1.7036    0.0000 C   0  0
  -10.5094    1.4178    0.0000 N   0  0
   -4.1388   -1.5155    0.0000 O   0  0
   -4.1445   -2.7155    0.0000 C   0  0
  -11.4182    2.6121    0.0000 C   0  0
  -12.8998    2.3572    0.0000 C   0  0
  -13.8600    3.5096    0.0000 C   0  0
  -13.3422    4.9173    0.0000 N   0  0
  -11.8641    5.1727    0.0000 C   0  0
  -10.9038    4.0203    0.0000 C   0  0
  1  2  2  0
  2  3  1  0
  3  4  2  0
  4  5  1  0
  5  6  2  0
  6  1  1  0
  1  7  1  0
  4  8  1  0
  6  9  1  0
  9 10  1  0
 10 11  2  0
 11 12  1  0
 12 13  2  0
 13 14  1  0
 14 15  2  0
 15 10  1  0
 15 16  1  0
 16 17  1  0
 17 18  1  0
 17 19  1  0
 16 20  2  0
 16 21  2  0
  8 22  1  0
 22 23  2  0
 23 24  1  0
 24 29  2  0
 30 25  2  0
 25 22  1  0
 26 27  1  0
 27 28  1  0
 26 29  1  0
 30 31  1  0
 31 32  1  0
 32 28  1  0
 29 30  1  0
 23 33  1  0
 33 34  1  0
 32 35  1  0
 35 36  1  0
 35 40  1  0
 36 37  1  0
 37 38  1  0
 38 39  1  0
 39 40  1  0
M  END
> <From>
www.bindingDB.org

> <BindingDB Reactant_set_id>
50405203

> <Ligand InChI>
InChI=1S/C29H37ClN6O3S/c1-19(2)40(37,38)27-9-5-4-8-24(27)33-28-23(30)17-32-29(35-28)34-25-15-21-18-36(22-10-12-31-13-11-22)14-6-7-20(21)16-26(25)39-3/h4-5,8-9,15-17,19,22,31H,6-7,10-14,18H2,1-3H3,(H2,32,33,34,35)

> <Ligand InChI Key>
NPPASAYBDKHVDT-UHFFFAOYSA-N

> <BindingDB MonomerID>
50116684

> <BindingDB Ligand Name>
CHEMBL3608643::US10053458, 62

> <Target Name Assigned by Curator or DataSource>
ALK tyrosine kinase receptor

> <Target Source Organism According to Curator or DataSource>
Homo sapiens

> <Ki (nM)>


> <IC50 (nM)>
 4400

> <Kd (nM)>


> <EC50 (nM)>


> <kon (M-1-s-1)>


> <koff (s-1)>


> <pH>


> <Temp C>


> <Curation/DataSource>
ChEMBL

> <Article DOI>
10.1016/j.bmcl.2015.07.004

> <PMID>
26235945

> <PubChem AID>


> <Patent Number>


> <Authors>
Kang, GA; Lee, M; Song, D; Lee, HK; Ahn, S; Park, CH; Lee, CO; Yun, CS; Jung, H; Kim, P; Ha, JD; Cho, SY; Kim, HR; Hwang, JY

> <Institution>
Korea Research Institute of Chemical Technology

> <Link to Ligand in BindingDB>
http://www.bindingdb.org/bind/chemsearch/marvin/MolStructure.jsp?monomerid=50116684

> <Link to Ligand-Target Pair in BindingDB>
http://www.bindingdb.org/jsp/dbsearch/PrimarySearch_ki.jsp?energyterm=kJ/mole&tag=pol&polymerid=5809&target=ALK+tyrosine+kinase+receptor&column=ki&startPg=0&Increment=50&submit=Search

> <Link to Ligand-Target Pair in BindingDB>
http://www.bindingdb.org/jsp/dbsearch/PrimarySearch_ki.jsp?energyterm=kJ/mole&tag=r21&monomerid=50116684&enzyme=ALK+tyrosine+kinase+receptor&column=ki&startPg=0&Increment=50&submit=Search

> <Ligand HET ID in PDB>


> <PDB ID(s) for Ligand-Target Complex>


> <PubChem CID>
122187041

> <PubChem SID>
319494332

> <ChEBI ID of Ligand>


> <ChEMBL ID of Ligand>
CHEMBL3608643

> <DrugBank ID of Ligand>


> <IUPHAR_GRAC ID of Ligand>


> <KEGG ID of Ligand>


> <ZINC ID of Ligand>


> <Number of Protein Chains in Target (>1 implies a multichain complex)>
1

> <BindingDB Target Chain Sequence>
MGAIGLLWLLPLLLSTAAVGSGMGTGQRAGSPAAGPPLQPREPLSYSRLQRKSLAVDFVVPSLFRVYARDLLLPPSSSELKAGRPEARGSLALDCAPLLRLLGPAPGVSWTAGSPAPAEARTLSRVLKGGSVRKLRRAKQLVLELGEEAILEGCVGPPGEAAVGLLQFNLSELFSWWIRQGEGRLRIRLMPEKKASEVGREGRLSAAIRASQPRLLFQIFGTGHSSLESPTNMPSPSPDYFTWNLTWIMKDSFPFLSHRSRYGLECSFDFPCELEYSPPLHDLRNQSWSWRRIPSEEASQMDLLDGPGAERSKEMPRGSFLLLNTSADSKHTILSPWMRSSSEHCTLAVSVHRHLQPSGRYIAQLLPHNEAAREILLMPTPGKHGWTVLQGRIGRPDNPFRVALEYISSGNRSLSAVDFFALKNCSEGTSPGSKMALQSSFTCWNGTVLQLGQACDFHQDCAQGEDESQMCRKLPVGFYCNFEDGFCGWTQGTLSPHTPQWQVRTLKDARFQDHQDHALLLSTTDVPASESATVTSATFPAPIKSSPCELRMSWLIRGVLRGNVSLVLVENKTGKEQGRMVWHVAAYEGLSLWQWMVLPLLDVSDRFWLQMVAWWGQGSRAIVAFDNISISLDCYLTISGEDKILQNTAPKSRNLFERNPNKELKPGENSPRQTPIFDPTVHWLFTTCGASGPHGPTQAQCNNAYQNSNLSVEVGSEGPLKGIQIWKVPATDTYSISGYGAAGGKGGKNTMMRSHGVSVLGIFNLEKDDMLYILVGQQGEDACPSTNQLIQKVCIGENNVIEEEIRVNRSVHEWAGGGGGGGGATYVFKMKDGVPVPLIIAAGGGGRAYGAKTDTFHPERLENNSSVLGLNGNSGAAGGGGGWNDNTSLLWAGKSLQEGATGGHSCPQAMKKWGWETRGGFGGGGGGCSSGGGGGGYIGGNAASNNDPEMDGEDGVSFISPLGILYTPALKVMEGHGEVNIKHYLNCSHCEVDECHMDPESHKVICFCDHGTVLAEDGVSCIVSPTPEPHLPLSLILSVVTSALVAALVLAFSGIMIVYRRKHQELQAMQMELQSPEYKLSKLRTSTIMTDYNPNYCFAGKTSSISDLKEVPRKNITLIRGLGHGAFGEVYEGQVSGMPNDPSPLQVAVKTLPEVCSEQDELDFLMEALIISKFNHQNIVRCIGVSLQSLPRFILLELMAGGDLKSFLRETRPRPSQPSSLAMLDLLHVARDIACGCQYLEENHFIHRDIAARNCLLTCPGPGRVAKIGDFGMARDIYRASYYRKGGCAMLPVKWMPPEAFMEGIFTSKTDTWSFGVLLWEIFSLGYMPYPSKSNQEVLEFVTSGGRMDPPKNCPGPVYRIMTQCWQHQPEDRPNFAIILERIEYCTQDPDVINTALPIEYGPLVEEEEKVPVRPKDPEGVPPLLVSQQAKREEERSPAAPPPLPTTSSGKAAKKPTAAEISVRVPRGPAVEGGHVNMAFSQSNPPSELHKVHGSRNKPTSLWNPTYGSWFTEKPTKKNNPIAKKEPHDRGNLGLEGSCTVPPNVATGRLPGASLLLEPSSLTANMKEVPLFRLRHFPCGNVNYGYQQQGLPLEAATAPGAGHYEDTILKSKNSMNQPGP

> <PDB ID(s) of Target Chain>
2XB7,2XBA,3AOX,5FTO,5FTQ,6E0R,6EBW,6EDL,6MX8

> <UniProt (SwissProt) Recommended Name of Target Chain>
ALK tyrosine kinase receptor

> <UniProt (SwissProt) Entry Name of Target Chain>
ALK_HUMAN

> <UniProt (SwissProt) Primary ID of Target Chain>
Q9UM73

> <UniProt (SwissProt) Secondary ID(s) of Target Chain>
Q4ZFX9,Q53QQ6,Q53RZ4,Q59FI3,Q9Y4K6

> <UniProt (SwissProt) Alternative ID(s) of Target Chain>


> <UniProt (TrEMBL) Submitted Name of Target Chain>


> <UniProt (TrEMBL) Entry Name of Target Chain>


> <UniProt (TrEMBL) Primary ID of Target Chain>


> <UniProt (TrEMBL) Secondary ID(s) of Target Chain>


> <UniProt (TrEMBL) Alternative ID(s) of Target Chain>


$$$$

  SciTegic04201609482D

 40 44  0  0  0  0            999 V2000
   -4.1157    6.0164    0.0000 C   0  0
   -5.4175    5.2712    0.0000 C   0  0
   -5.4230    3.7712    0.0000 N   0  0
   -4.1268    3.0163    0.0000 C   0  0
   -2.8250    3.7616    0.0000 N   0  0
   -2.8195    5.2616    0.0000 C   0  0
   -4.1113    7.2164    0.0000 Cl  0  0
   -4.1292    1.5155    0.0000 N   0  0
   -1.5154    6.0046    0.0000 N   0  0
   -0.2195    5.2476    0.0000 C   0  0
   -0.2301    3.7475    0.0000 C   0  0
    1.0635    2.9883    0.0000 C   0  0
    2.3679    3.7290    0.0000 C   0  0
    2.3786    5.2290    0.0000 C   0  0
    1.0849    5.9882    0.0000 C   0  0
    1.0957    7.4890    0.0000 S   0  0
    2.4003    8.2309    0.0000 C   0  0
    2.4089    9.4309    0.0000 C   0  0
    3.4354    7.6238    0.0000 C   0  0
    1.1037    8.6890    0.0000 O   0  0
    0.0606    8.0961    0.0000 O   0  0
   -2.8315    0.7623    0.0000 C   0  0
   -2.8315   -0.7623    0.0000 C   0  0
   -1.4884   -1.5247    0.0000 C   0  0
   -1.4884    1.5247    0.0000 C   0  0
    0.7442   -1.6517    0.0000 C   0  0
    2.2325   -1.4158    0.0000 N   0  0
    2.9404    0.0000    0.0000 C   0  0
    0.0000   -0.7623    0.0000 C   0  0
    0.0000    0.7623    0.0000 C   0  0
    0.7805    1.6880    0.0000 C   0  0
    2.2507    1.3976    0.0000 C   0  0
   -4.1292   -1.5155    0.0000 O   0  0
   -4.1273   -2.7155    0.0000 C   0  0
    3.1193   -2.6265    0.0000 C   0  0
    4.6070   -2.4154    0.0000 C   0  0
    5.5326   -3.5958    0.0000 C   0  0
    4.9732   -4.9876    0.0000 O   0  0
    3.4882   -5.1990    0.0000 C   0  0
    2.5626   -4.0187    0.0000 C   0  0
  1  2  2  0
  2  3  1  0
  3  4  2  0
  4  5  1  0
  5  6  2  0
  6  1  1  0
  1  7  1  0
  4  8  1  0
  6  9  1  0
  9 10  1  0
 10 11  2  0
 11 12  1  0
 12 13  2  0
 13 14  1  0
 14 15  2  0
 15 10  1  0
 15 16  1  0
 16 17  1  0
 17 18  1  0
 17 19  1  0
 16 20  2  0
 16 21  2  0
  8 22  1  0
 22 23  2  0
 23 24  1  0
 24 29  2  0
 30 25  2  0
 25 22  1  0
 26 27  1  0
 27 28  1  0
 26 29  1  0
 30 31  1  0
 31 32  1  0
 32 28  1  0
 29 30  1  0
 23 33  1  0
 33 34  1  0
 27 35  1  0
 35 36  1  0
 35 40  1  0
 36 37  1  0
 37 38  1  0
 38 39  1  0
 39 40  1  0
M  END
> <From>
www.bindingDB.org

> <BindingDB Reactant_set_id>
50405204

> <Ligand InChI>
InChI=1S/C29H36ClN5O4S/c1-19(2)40(36,37)27-9-5-4-8-24(27)32-28-23(30)17-31-29(34-28)33-25-15-20-7-6-12-35(22-10-13-39-14-11-22)18-21(20)16-26(25)38-3/h4-5,8-9,15-17,19,22H,6-7,10-14,18H2,1-3H3,(H2,31,32,33,34)

> <Ligand InChI Key>
UCEAVAQSKJVJFP-UHFFFAOYSA-N

> <BindingDB MonomerID>
50116685

> <BindingDB Ligand Name>
CHEMBL3608644::US10053458, 54

> <Target Name Assigned by Curator or DataSource>
ALK tyrosine kinase receptor

> <Target Source Organism According to Curator or DataSource>
Homo sapiens

> <Ki (nM)>


> <IC50 (nM)>
 1200

> <Kd (nM)>


> <EC50 (nM)>


> <kon (M-1-s-1)>


> <koff (s-1)>


> <pH>


> <Temp C>


> <Curation/DataSource>
ChEMBL

> <Article DOI>
10.1016/j.bmcl.2015.07.004

> <PMID>
26235945

> <PubChem AID>


> <Patent Number>


> <Authors>
Kang, GA; Lee, M; Song, D; Lee, HK; Ahn, S; Park, CH; Lee, CO; Yun, CS; Jung, H; Kim, P; Ha, JD; Cho, SY; Kim, HR; Hwang, JY

> <Institution>
Korea Research Institute of Chemical Technology

> <Link to Ligand in BindingDB>
http://www.bindingdb.org/bind/chemsearch/marvin/MolStructure.jsp?monomerid=50116685

> <Link to Ligand-Target Pair in BindingDB>
http://www.bindingdb.org/jsp/dbsearch/PrimarySearch_ki.jsp?energyterm=kJ/mole&tag=pol&polymerid=5809&target=ALK+tyrosine+kinase+receptor&column=ki&startPg=0&Increment=50&submit=Search

> <Link to Ligand-Target Pair in BindingDB>
http://www.bindingdb.org/jsp/dbsearch/PrimarySearch_ki.jsp?energyterm=kJ/mole&tag=r21&monomerid=50116685&enzyme=ALK+tyrosine+kinase+receptor&column=ki&startPg=0&Increment=50&submit=Search

> <Ligand HET ID in PDB>


> <PDB ID(s) for Ligand-Target Complex>


> <PubChem CID>
122187042

> <PubChem SID>
319494333

> <ChEBI ID of Ligand>


> <ChEMBL ID of Ligand>
CHEMBL3608644

> <DrugBank ID of Ligand>


> <IUPHAR_GRAC ID of Ligand>


> <KEGG ID of Ligand>


> <ZINC ID of Ligand>


> <Number of Protein Chains in Target (>1 implies a multichain complex)>
1

> <BindingDB Target Chain Sequence>
MGAIGLLWLLPLLLSTAAVGSGMGTGQRAGSPAAGPPLQPREPLSYSRLQRKSLAVDFVVPSLFRVYARDLLLPPSSSELKAGRPEARGSLALDCAPLLRLLGPAPGVSWTAGSPAPAEARTLSRVLKGGSVRKLRRAKQLVLELGEEAILEGCVGPPGEAAVGLLQFNLSELFSWWIRQGEGRLRIRLMPEKKASEVGREGRLSAAIRASQPRLLFQIFGTGHSSLESPTNMPSPSPDYFTWNLTWIMKDSFPFLSHRSRYGLECSFDFPCELEYSPPLHDLRNQSWSWRRIPSEEASQMDLLDGPGAERSKEMPRGSFLLLNTSADSKHTILSPWMRSSSEHCTLAVSVHRHLQPSGRYIAQLLPHNEAAREILLMPTPGKHGWTVLQGRIGRPDNPFRVALEYISSGNRSLSAVDFFALKNCSEGTSPGSKMALQSSFTCWNGTVLQLGQACDFHQDCAQGEDESQMCRKLPVGFYCNFEDGFCGWTQGTLSPHTPQWQVRTLKDARFQDHQDHALLLSTTDVPASESATVTSATFPAPIKSSPCELRMSWLIRGVLRGNVSLVLVENKTGKEQGRMVWHVAAYEGLSLWQWMVLPLLDVSDRFWLQMVAWWGQGSRAIVAFDNISISLDCYLTISGEDKILQNTAPKSRNLFERNPNKELKPGENSPRQTPIFDPTVHWLFTTCGASGPHGPTQAQCNNAYQNSNLSVEVGSEGPLKGIQIWKVPATDTYSISGYGAAGGKGGKNTMMRSHGVSVLGIFNLEKDDMLYILVGQQGEDACPSTNQLIQKVCIGENNVIEEEIRVNRSVHEWAGGGGGGGGATYVFKMKDGVPVPLIIAAGGGGRAYGAKTDTFHPERLENNSSVLGLNGNSGAAGGGGGWNDNTSLLWAGKSLQEGATGGHSCPQAMKKWGWETRGGFGGGGGGCSSGGGGGGYIGGNAASNNDPEMDGEDGVSFISPLGILYTPALKVMEGHGEVNIKHYLNCSHCEVDECHMDPESHKVICFCDHGTVLAEDGVSCIVSPTPEPHLPLSLILSVVTSALVAALVLAFSGIMIVYRRKHQELQAMQMELQSPEYKLSKLRTSTIMTDYNPNYCFAGKTSSISDLKEVPRKNITLIRGLGHGAFGEVYEGQVSGMPNDPSPLQVAVKTLPEVCSEQDELDFLMEALIISKFNHQNIVRCIGVSLQSLPRFILLELMAGGDLKSFLRETRPRPSQPSSLAMLDLLHVARDIACGCQYLEENHFIHRDIAARNCLLTCPGPGRVAKIGDFGMARDIYRASYYRKGGCAMLPVKWMPPEAFMEGIFTSKTDTWSFGVLLWEIFSLGYMPYPSKSNQEVLEFVTSGGRMDPPKNCPGPVYRIMTQCWQHQPEDRPNFAIILERIEYCTQDPDVINTALPIEYGPLVEEEEKVPVRPKDPEGVPPLLVSQQAKREEERSPAAPPPLPTTSSGKAAKKPTAAEISVRVPRGPAVEGGHVNMAFSQSNPPSELHKVHGSRNKPTSLWNPTYGSWFTEKPTKKNNPIAKKEPHDRGNLGLEGSCTVPPNVATGRLPGASLLLEPSSLTANMKEVPLFRLRHFPCGNVNYGYQQQGLPLEAATAPGAGHYEDTILKSKNSMNQPGP

> <PDB ID(s) of Target Chain>
2XB7,2XBA,3AOX,5FTO,5FTQ,6E0R,6EBW,6EDL,6MX8

> <UniProt (SwissProt) Recommended Name of Target Chain>
ALK tyrosine kinase receptor

> <UniProt (SwissProt) Entry Name of Target Chain>
ALK_HUMAN

> <UniProt (SwissProt) Primary ID of Target Chain>
Q9UM73

> <UniProt (SwissProt) Secondary ID(s) of Target Chain>
Q4ZFX9,Q53QQ6,Q53RZ4,Q59FI3,Q9Y4K6

> <UniProt (SwissProt) Alternative ID(s) of Target Chain>


> <UniProt (TrEMBL) Submitted Name of Target Chain>


> <UniProt (TrEMBL) Entry Name of Target Chain>


> <UniProt (TrEMBL) Primary ID of Target Chain>


> <UniProt (TrEMBL) Secondary ID(s) of Target Chain>


> <UniProt (TrEMBL) Alternative ID(s) of Target Chain>


$$$$

  SciTegic04201609482D

 40 44  0  0  0  0            999 V2000
   -4.1157    6.0164    0.0000 C   0  0
   -5.4175    5.2712    0.0000 C   0  0
   -5.4230    3.7712    0.0000 N   0  0
   -4.1268    3.0163    0.0000 C   0  0
   -2.8250    3.7616    0.0000 N   0  0
   -2.8195    5.2616    0.0000 C   0  0
   -4.1113    7.2164    0.0000 Cl  0  0
   -4.1292    1.5155    0.0000 N   0  0
   -1.5154    6.0046    0.0000 N   0  0
   -0.2195    5.2476    0.0000 C   0  0
   -0.2301    3.7475    0.0000 C   0  0
    1.0635    2.9883    0.0000 C   0  0
    2.3679    3.7290    0.0000 C   0  0
    2.3786    5.2290    0.0000 C   0  0
    1.0849    5.9882    0.0000 C   0  0
    1.0957    7.4890    0.0000 S   0  0
    2.4003    8.2309    0.0000 C   0  0
    2.4089    9.4309    0.0000 C   0  0
    3.4354    7.6238    0.0000 C   0  0
    1.1037    8.6890    0.0000 O   0  0
    0.0606    8.0961    0.0000 O   0  0
   -5.4292    0.7664    0.0000 C   0  0
   -5.4340   -0.7582    0.0000 C   0  0
   -6.7796   -1.5163    0.0000 C   0  0
   -6.7699    1.5330    0.0000 C   0  0
   -9.0125   -1.6362    0.0000 C   0  0
  -10.5001   -1.3956    0.0000 C   0  0
  -11.2035    0.0224    0.0000 C   0  0
   -8.2655   -0.7492    0.0000 C   0  0
   -8.2607    0.7754    0.0000 C   0  0
   -9.0382    1.7036    0.0000 C   0  0
  -10.5094    1.4178    0.0000 N   0  0
   -4.1388   -1.5155    0.0000 O   0  0
   -4.1445   -2.7155    0.0000 C   0  0
  -11.4182    2.6121    0.0000 C   0  0
  -12.8998    2.3572    0.0000 C   0  0
  -13.8600    3.5096    0.0000 C   0  0
  -13.3422    4.9173    0.0000 O   0  0
  -11.8641    5.1727    0.0000 C   0  0
  -10.9038    4.0203    0.0000 C   0  0
  1  2  2  0
  2  3  1  0
  3  4  2  0
  4  5  1  0
  5  6  2  0
  6  1  1  0
  1  7  1  0
  4  8  1  0
  6  9  1  0
  9 10  1  0
 10 11  2  0
 11 12  1  0
 12 13  2  0
 13 14  1  0
 14 15  2  0
 15 10  1  0
 15 16  1  0
 16 17  1  0
 17 18  1  0
 17 19  1  0
 16 20  2  0
 16 21  2  0
  8 22  1  0
 22 23  2  0
 23 24  1  0
 24 29  2  0
 30 25  2  0
 25 22  1  0
 26 27  1  0
 27 28  1  0
 26 29  1  0
 30 31  1  0
 31 32  1  0
 32 28  1  0
 29 30  1  0
 23 33  1  0
 33 34  1  0
 32 35  1  0
 35 36  1  0
 35 40  1  0
 36 37  1  0
 37 38  1  0
 38 39  1  0
 39 40  1  0
M  END
> <From>
www.bindingDB.org

> <BindingDB Reactant_set_id>
50405205

> <Ligand InChI>
InChI=1S/C29H36ClN5O4S/c1-19(2)40(36,37)27-9-5-4-8-24(27)32-28-23(30)17-31-29(34-28)33-25-15-21-18-35(22-10-13-39-14-11-22)12-6-7-20(21)16-26(25)38-3/h4-5,8-9,15-17,19,22H,6-7,10-14,18H2,1-3H3,(H2,31,32,33,34)

> <Ligand InChI Key>
DZDHTEOJHDYEPP-UHFFFAOYSA-N

> <BindingDB MonomerID>
50116686

> <BindingDB Ligand Name>
CHEMBL3608313::US10053458, 63

> <Target Name Assigned by Curator or DataSource>
ALK tyrosine kinase receptor

> <Target Source Organism According to Curator or DataSource>
Homo sapiens

> <Ki (nM)>


> <IC50 (nM)>
 7300

> <Kd (nM)>


> <EC50 (nM)>


> <kon (M-1-s-1)>


> <koff (s-1)>


> <pH>


> <Temp C>


> <Curation/DataSource>
ChEMBL

> <Article DOI>
10.1016/j.bmcl.2015.07.004

> <PMID>
26235945

> <PubChem AID>


> <Patent Number>


> <Authors>
Kang, GA; Lee, M; Song, D; Lee, HK; Ahn, S; Park, CH; Lee, CO; Yun, CS; Jung, H; Kim, P; Ha, JD; Cho, SY; Kim, HR; Hwang, JY

> <Institution>
Korea Research Institute of Chemical Technology

> <Link to Ligand in BindingDB>
http://www.bindingdb.org/bind/chemsearch/marvin/MolStructure.jsp?monomerid=50116686

> <Link to Ligand-Target Pair in BindingDB>
http://www.bindingdb.org/jsp/dbsearch/PrimarySearch_ki.jsp?energyterm=kJ/mole&tag=pol&polymerid=5809&target=ALK+tyrosine+kinase+receptor&column=ki&startPg=0&Increment=50&submit=Search

> <Link to Ligand-Target Pair in BindingDB>
http://www.bindingdb.org/jsp/dbsearch/PrimarySearch_ki.jsp?energyterm=kJ/mole&tag=r21&monomerid=50116686&enzyme=ALK+tyrosine+kinase+receptor&column=ki&startPg=0&Increment=50&submit=Search

> <Ligand HET ID in PDB>


> <PDB ID(s) for Ligand-Target Complex>


> <PubChem CID>
122187043

> <PubChem SID>
319494334

> <ChEBI ID of Ligand>


> <ChEMBL ID of Ligand>
CHEMBL3608313

> <DrugBank ID of Ligand>


> <IUPHAR_GRAC ID of Ligand>


> <KEGG ID of Ligand>


> <ZINC ID of Ligand>


> <Number of Protein Chains in Target (>1 implies a multichain complex)>
1

> <BindingDB Target Chain Sequence>
MGAIGLLWLLPLLLSTAAVGSGMGTGQRAGSPAAGPPLQPREPLSYSRLQRKSLAVDFVVPSLFRVYARDLLLPPSSSELKAGRPEARGSLALDCAPLLRLLGPAPGVSWTAGSPAPAEARTLSRVLKGGSVRKLRRAKQLVLELGEEAILEGCVGPPGEAAVGLLQFNLSELFSWWIRQGEGRLRIRLMPEKKASEVGREGRLSAAIRASQPRLLFQIFGTGHSSLESPTNMPSPSPDYFTWNLTWIMKDSFPFLSHRSRYGLECSFDFPCELEYSPPLHDLRNQSWSWRRIPSEEASQMDLLDGPGAERSKEMPRGSFLLLNTSADSKHTILSPWMRSSSEHCTLAVSVHRHLQPSGRYIAQLLPHNEAAREILLMPTPGKHGWTVLQGRIGRPDNPFRVALEYISSGNRSLSAVDFFALKNCSEGTSPGSKMALQSSFTCWNGTVLQLGQACDFHQDCAQGEDESQMCRKLPVGFYCNFEDGFCGWTQGTLSPHTPQWQVRTLKDARFQDHQDHALLLSTTDVPASESATVTSATFPAPIKSSPCELRMSWLIRGVLRGNVSLVLVENKTGKEQGRMVWHVAAYEGLSLWQWMVLPLLDVSDRFWLQMVAWWGQGSRAIVAFDNISISLDCYLTISGEDKILQNTAPKSRNLFERNPNKELKPGENSPRQTPIFDPTVHWLFTTCGASGPHGPTQAQCNNAYQNSNLSVEVGSEGPLKGIQIWKVPATDTYSISGYGAAGGKGGKNTMMRSHGVSVLGIFNLEKDDMLYILVGQQGEDACPSTNQLIQKVCIGENNVIEEEIRVNRSVHEWAGGGGGGGGATYVFKMKDGVPVPLIIAAGGGGRAYGAKTDTFHPERLENNSSVLGLNGNSGAAGGGGGWNDNTSLLWAGKSLQEGATGGHSCPQAMKKWGWETRGGFGGGGGGCSSGGGGGGYIGGNAASNNDPEMDGEDGVSFISPLGILYTPALKVMEGHGEVNIKHYLNCSHCEVDECHMDPESHKVICFCDHGTVLAEDGVSCIVSPTPEPHLPLSLILSVVTSALVAALVLAFSGIMIVYRRKHQELQAMQMELQSPEYKLSKLRTSTIMTDYNPNYCFAGKTSSISDLKEVPRKNITLIRGLGHGAFGEVYEGQVSGMPNDPSPLQVAVKTLPEVCSEQDELDFLMEALIISKFNHQNIVRCIGVSLQSLPRFILLELMAGGDLKSFLRETRPRPSQPSSLAMLDLLHVARDIACGCQYLEENHFIHRDIAARNCLLTCPGPGRVAKIGDFGMARDIYRASYYRKGGCAMLPVKWMPPEAFMEGIFTSKTDTWSFGVLLWEIFSLGYMPYPSKSNQEVLEFVTSGGRMDPPKNCPGPVYRIMTQCWQHQPEDRPNFAIILERIEYCTQDPDVINTALPIEYGPLVEEEEKVPVRPKDPEGVPPLLVSQQAKREEERSPAAPPPLPTTSSGKAAKKPTAAEISVRVPRGPAVEGGHVNMAFSQSNPPSELHKVHGSRNKPTSLWNPTYGSWFTEKPTKKNNPIAKKEPHDRGNLGLEGSCTVPPNVATGRLPGASLLLEPSSLTANMKEVPLFRLRHFPCGNVNYGYQQQGLPLEAATAPGAGHYEDTILKSKNSMNQPGP

> <PDB ID(s) of Target Chain>
2XB7,2XBA,3AOX,5FTO,5FTQ,6E0R,6EBW,6EDL,6MX8

> <UniProt (SwissProt) Recommended Name of Target Chain>
ALK tyrosine kinase receptor

> <UniProt (SwissProt) Entry Name of Target Chain>
ALK_HUMAN

> <UniProt (SwissProt) Primary ID of Target Chain>
Q9UM73

> <UniProt (SwissProt) Secondary ID(s) of Target Chain>
Q4ZFX9,Q53QQ6,Q53RZ4,Q59FI3,Q9Y4K6

> <UniProt (SwissProt) Alternative ID(s) of Target Chain>


> <UniProt (TrEMBL) Submitted Name of Target Chain>


> <UniProt (TrEMBL) Entry Name of Target Chain>


> <UniProt (TrEMBL) Primary ID of Target Chain>


> <UniProt (TrEMBL) Secondary ID(s) of Target Chain>


> <UniProt (TrEMBL) Alternative ID(s) of Target Chain>


$$$$

  SciTegic04201609482D

 38 42  0  0  0  0            999 V2000
   -4.1157    6.0164    0.0000 C   0  0
   -5.4175    5.2712    0.0000 C   0  0
   -5.4230    3.7712    0.0000 N   0  0
   -4.1268    3.0163    0.0000 C   0  0
   -2.8250    3.7616    0.0000 N   0  0
   -2.8195    5.2616    0.0000 C   0  0
   -4.1113    7.2164    0.0000 Cl  0  0
   -4.1292    1.5155    0.0000 N   0  0
   -1.5154    6.0046    0.0000 N   0  0
   -0.2195    5.2476    0.0000 C   0  0
   -0.2301    3.7475    0.0000 C   0  0
    1.0635    2.9883    0.0000 C   0  0
    2.3679    3.7290    0.0000 C   0  0
    2.3786    5.2290    0.0000 C   0  0
    1.0849    5.9882    0.0000 C   0  0
    1.0957    7.4890    0.0000 S   0  0
    2.4003    8.2309    0.0000 C   0  0
    2.4089    9.4309    0.0000 C   0  0
    3.4354    7.6238    0.0000 C   0  0
    1.1037    8.6890    0.0000 O   0  0
    0.0606    8.0961    0.0000 O   0  0
   -2.8315    0.7623    0.0000 C   0  0
   -2.8315   -0.7623    0.0000 C   0  0
   -1.4884   -1.5247    0.0000 C   0  0
   -1.4884    1.5247    0.0000 C   0  0
    0.7442   -1.6517    0.0000 C   0  0
    2.2325   -1.4158    0.0000 N   0  0
    2.9404    0.0000    0.0000 C   0  0
    0.0000   -0.7623    0.0000 C   0  0
    0.0000    0.7623    0.0000 C   0  0
    0.7805    1.6880    0.0000 C   0  0
    2.2507    1.3976    0.0000 C   0  0
   -4.1292   -1.5155    0.0000 O   0  0
   -4.1273   -2.7155    0.0000 C   0  0
    3.1193   -2.6265    0.0000 C   0  0
    4.5793   -2.7617    0.0000 C   0  0
    4.4041   -4.2514    0.0000 O   0  0
    2.9144   -4.0762    0.0000 C   0  0
  1  2  2  0
  2  3  1  0
  3  4  2  0
  4  5  1  0
  5  6  2  0
  6  1  1  0
  1  7  1  0
  4  8  1  0
  6  9  1  0
  9 10  1  0
 10 11  2  0
 11 12  1  0
 12 13  2  0
 13 14  1  0
 14 15  2  0
 15 10  1  0
 15 16  1  0
 16 17  1  0
 17 18  1  0
 17 19  1  0
 16 20  2  0
 16 21  2  0
  8 22  1  0
 22 23  2  0
 23 24  1  0
 24 29  2  0
 30 25  2  0
 25 22  1  0
 26 27  1  0
 27 28  1  0
 26 29  1  0
 30 31  1  0
 31 32  1  0
 32 28  1  0
 29 30  1  0
 23 33  1  0
 33 34  1  0
 27 35  1  0
 35 36  1  0
 36 37  1  0
 37 38  1  0
 38 35  1  0
M  END
> <From>
www.bindingDB.org

> <BindingDB Reactant_set_id>
50405206

> <Ligand InChI>
InChI=1S/C27H32ClN5O4S/c1-17(2)38(34,35)25-9-5-4-8-22(25)30-26-21(28)13-29-27(32-26)31-23-11-18-7-6-10-33(20-15-37-16-20)14-19(18)12-24(23)36-3/h4-5,8-9,11-13,17,20H,6-7,10,14-16H2,1-3H3,(H2,29,30,31,32)

> <Ligand InChI Key>
WCCLJJOUCIHEBN-UHFFFAOYSA-N

> <BindingDB MonomerID>
50116687

> <BindingDB Ligand Name>
CHEMBL3608645::US10053458, 55

> <Target Name Assigned by Curator or DataSource>
ALK tyrosine kinase receptor

> <Target Source Organism According to Curator or DataSource>
Homo sapiens

> <Ki (nM)>


> <IC50 (nM)>
 2400

> <Kd (nM)>


> <EC50 (nM)>


> <kon (M-1-s-1)>


> <koff (s-1)>


> <pH>


> <Temp C>


> <Curation/DataSource>
ChEMBL

> <Article DOI>
10.1016/j.bmcl.2015.07.004

> <PMID>
26235945

> <PubChem AID>


> <Patent Number>


> <Authors>
Kang, GA; Lee, M; Song, D; Lee, HK; Ahn, S; Park, CH; Lee, CO; Yun, CS; Jung, H; Kim, P; Ha, JD; Cho, SY; Kim, HR; Hwang, JY

> <Institution>
Korea Research Institute of Chemical Technology

> <Link to Ligand in BindingDB>
http://www.bindingdb.org/bind/chemsearch/marvin/MolStructure.jsp?monomerid=50116687

> <Link to Ligand-Target Pair in BindingDB>
http://www.bindingdb.org/jsp/dbsearch/PrimarySearch_ki.jsp?energyterm=kJ/mole&tag=pol&polymerid=5809&target=ALK+tyrosine+kinase+receptor&column=ki&startPg=0&Increment=50&submit=Search

> <Link to Ligand-Target Pair in BindingDB>
http://www.bindingdb.org/jsp/dbsearch/PrimarySearch_ki.jsp?energyterm=kJ/mole&tag=r21&monomerid=50116687&enzyme=ALK+tyrosine+kinase+receptor&column=ki&startPg=0&Increment=50&submit=Search

> <Ligand HET ID in PDB>


> <PDB ID(s) for Ligand-Target Complex>


> <PubChem CID>
122187044

> <PubChem SID>
319494335

> <ChEBI ID of Ligand>


> <ChEMBL ID of Ligand>
CHEMBL3608645

> <DrugBank ID of Ligand>


> <IUPHAR_GRAC ID of Ligand>


> <KEGG ID of Ligand>


> <ZINC ID of Ligand>


> <Number of Protein Chains in Target (>1 implies a multichain complex)>
1

> <BindingDB Target Chain Sequence>
MGAIGLLWLLPLLLSTAAVGSGMGTGQRAGSPAAGPPLQPREPLSYSRLQRKSLAVDFVVPSLFRVYARDLLLPPSSSELKAGRPEARGSLALDCAPLLRLLGPAPGVSWTAGSPAPAEARTLSRVLKGGSVRKLRRAKQLVLELGEEAILEGCVGPPGEAAVGLLQFNLSELFSWWIRQGEGRLRIRLMPEKKASEVGREGRLSAAIRASQPRLLFQIFGTGHSSLESPTNMPSPSPDYFTWNLTWIMKDSFPFLSHRSRYGLECSFDFPCELEYSPPLHDLRNQSWSWRRIPSEEASQMDLLDGPGAERSKEMPRGSFLLLNTSADSKHTILSPWMRSSSEHCTLAVSVHRHLQPSGRYIAQLLPHNEAAREILLMPTPGKHGWTVLQGRIGRPDNPFRVALEYISSGNRSLSAVDFFALKNCSEGTSPGSKMALQSSFTCWNGTVLQLGQACDFHQDCAQGEDESQMCRKLPVGFYCNFEDGFCGWTQGTLSPHTPQWQVRTLKDARFQDHQDHALLLSTTDVPASESATVTSATFPAPIKSSPCELRMSWLIRGVLRGNVSLVLVENKTGKEQGRMVWHVAAYEGLSLWQWMVLPLLDVSDRFWLQMVAWWGQGSRAIVAFDNISISLDCYLTISGEDKILQNTAPKSRNLFERNPNKELKPGENSPRQTPIFDPTVHWLFTTCGASGPHGPTQAQCNNAYQNSNLSVEVGSEGPLKGIQIWKVPATDTYSISGYGAAGGKGGKNTMMRSHGVSVLGIFNLEKDDMLYILVGQQGEDACPSTNQLIQKVCIGENNVIEEEIRVNRSVHEWAGGGGGGGGATYVFKMKDGVPVPLIIAAGGGGRAYGAKTDTFHPERLENNSSVLGLNGNSGAAGGGGGWNDNTSLLWAGKSLQEGATGGHSCPQAMKKWGWETRGGFGGGGGGCSSGGGGGGYIGGNAASNNDPEMDGEDGVSFISPLGILYTPALKVMEGHGEVNIKHYLNCSHCEVDECHMDPESHKVICFCDHGTVLAEDGVSCIVSPTPEPHLPLSLILSVVTSALVAALVLAFSGIMIVYRRKHQELQAMQMELQSPEYKLSKLRTSTIMTDYNPNYCFAGKTSSISDLKEVPRKNITLIRGLGHGAFGEVYEGQVSGMPNDPSPLQVAVKTLPEVCSEQDELDFLMEALIISKFNHQNIVRCIGVSLQSLPRFILLELMAGGDLKSFLRETRPRPSQPSSLAMLDLLHVARDIACGCQYLEENHFIHRDIAARNCLLTCPGPGRVAKIGDFGMARDIYRASYYRKGGCAMLPVKWMPPEAFMEGIFTSKTDTWSFGVLLWEIFSLGYMPYPSKSNQEVLEFVTSGGRMDPPKNCPGPVYRIMTQCWQHQPEDRPNFAIILERIEYCTQDPDVINTALPIEYGPLVEEEEKVPVRPKDPEGVPPLLVSQQAKREEERSPAAPPPLPTTSSGKAAKKPTAAEISVRVPRGPAVEGGHVNMAFSQSNPPSELHKVHGSRNKPTSLWNPTYGSWFTEKPTKKNNPIAKKEPHDRGNLGLEGSCTVPPNVATGRLPGASLLLEPSSLTANMKEVPLFRLRHFPCGNVNYGYQQQGLPLEAATAPGAGHYEDTILKSKNSMNQPGP

> <PDB ID(s) of Target Chain>
2XB7,2XBA,3AOX,5FTO,5FTQ,6E0R,6EBW,6EDL,6MX8

> <UniProt (SwissProt) Recommended Name of Target Chain>
ALK tyrosine kinase receptor

> <UniProt (SwissProt) Entry Name of Target Chain>
ALK_HUMAN

> <UniProt (SwissProt) Primary ID of Target Chain>
Q9UM73

> <UniProt (SwissProt) Secondary ID(s) of Target Chain>
Q4ZFX9,Q53QQ6,Q53RZ4,Q59FI3,Q9Y4K6

> <UniProt (SwissProt) Alternative ID(s) of Target Chain>


> <UniProt (TrEMBL) Submitted Name of Target Chain>


> <UniProt (TrEMBL) Entry Name of Target Chain>


> <UniProt (TrEMBL) Primary ID of Target Chain>


> <UniProt (TrEMBL) Secondary ID(s) of Target Chain>


> <UniProt (TrEMBL) Alternative ID(s) of Target Chain>


$$$$

  SciTegic04201609482D

 38 42  0  0  0  0            999 V2000
   -4.1157    6.0164    0.0000 C   0  0
   -5.4175    5.2712    0.0000 C   0  0
   -5.4230    3.7712    0.0000 N   0  0
   -4.1268    3.0163    0.0000 C   0  0
   -2.8250    3.7616    0.0000 N   0  0
   -2.8195    5.2616    0.0000 C   0  0
   -4.1113    7.2164    0.0000 Cl  0  0
   -4.1292    1.5155    0.0000 N   0  0
   -1.5154    6.0046    0.0000 N   0  0
   -0.2195    5.2476    0.0000 C   0  0
   -0.2301    3.7475    0.0000 C   0  0
    1.0635    2.9883    0.0000 C   0  0
    2.3679    3.7290    0.0000 C   0  0
    2.3786    5.2290    0.0000 C   0  0
    1.0849    5.9882    0.0000 C   0  0
    1.0957    7.4890    0.0000 S   0  0
    2.4003    8.2309    0.0000 C   0  0
    2.4089    9.4309    0.0000 C   0  0
    3.4354    7.6238    0.0000 C   0  0
    1.1037    8.6890    0.0000 O   0  0
    0.0606    8.0961    0.0000 O   0  0
   -2.8315    0.7623    0.0000 C   0  0
   -2.8315   -0.7623    0.0000 C   0  0
   -1.4884   -1.5247    0.0000 C   0  0
   -1.4884    1.5247    0.0000 C   0  0
    0.7442   -1.6517    0.0000 C   0  0
    2.2325   -1.4158    0.0000 C   0  0
    2.9404    0.0000    0.0000 C   0  0
    0.0000   -0.7623    0.0000 C   0  0
    0.0000    0.7623    0.0000 C   0  0
    0.7805    1.6880    0.0000 C   0  0
    2.2507    1.3976    0.0000 N   0  0
   -4.1292   -1.5155    0.0000 O   0  0
   -4.1273   -2.7155    0.0000 C   0  0
    3.1633    2.5890    0.0000 C   0  0
    4.6278    2.6748    0.0000 C   0  0
    4.5032    4.1697    0.0000 O   0  0
    3.0084    4.0451    0.0000 C   0  0
  1  2  2  0
  2  3  1  0
  3  4  2  0
  4  5  1  0
  5  6  2  0
  6  1  1  0
  1  7  1  0
  4  8  1  0
  6  9  1  0
  9 10  1  0
 10 11  2  0
 11 12  1  0
 12 13  2  0
 13 14  1  0
 14 15  2  0
 15 10  1  0
 15 16  1  0
 16 17  1  0
 17 18  1  0
 17 19  1  0
 16 20  2  0
 16 21  2  0
  8 22  1  0
 22 23  2  0
 23 24  1  0
 24 29  2  0
 30 25  2  0
 25 22  1  0
 26 27  1  0
 27 28  1  0
 26 29  1  0
 30 31  1  0
 31 32  1  0
 32 28  1  0
 29 30  1  0
 23 33  1  0
 33 34  1  0
 32 35  1  0
 35 36  1  0
 36 37  1  0
 37 38  1  0
 38 35  1  0
M  END
> <From>
www.bindingDB.org

> <BindingDB Reactant_set_id>
50405182

> <Ligand InChI>
InChI=1S/C27H32ClN5O4S/c1-17(2)38(34,35)25-9-5-4-8-22(25)30-26-21(28)13-29-27(32-26)31-23-11-19-14-33(20-15-37-16-20)10-6-7-18(19)12-24(23)36-3/h4-5,8-9,11-13,17,20H,6-7,10,14-16H2,1-3H3,(H2,29,30,31,32)

> <Ligand InChI Key>
WAMHTMOXRWVKNP-UHFFFAOYSA-N

> <BindingDB MonomerID>
50116688

> <BindingDB Ligand Name>
CHEMBL3608646::US10053458, 64

> <Target Name Assigned by Curator or DataSource>
ALK tyrosine kinase receptor

> <Target Source Organism According to Curator or DataSource>
Homo sapiens

> <Ki (nM)>


> <IC50 (nM)>
 3600

> <Kd (nM)>


> <EC50 (nM)>


> <kon (M-1-s-1)>


> <koff (s-1)>


> <pH>


> <Temp C>


> <Curation/DataSource>
ChEMBL

> <Article DOI>
10.1016/j.bmcl.2015.07.004

> <PMID>
26235945

> <PubChem AID>


> <Patent Number>


> <Authors>
Kang, GA; Lee, M; Song, D; Lee, HK; Ahn, S; Park, CH; Lee, CO; Yun, CS; Jung, H; Kim, P; Ha, JD; Cho, SY; Kim, HR; Hwang, JY

> <Institution>
Korea Research Institute of Chemical Technology

> <Link to Ligand in BindingDB>
http://www.bindingdb.org/bind/chemsearch/marvin/MolStructure.jsp?monomerid=50116688

> <Link to Ligand-Target Pair in BindingDB>
http://www.bindingdb.org/jsp/dbsearch/PrimarySearch_ki.jsp?energyterm=kJ/mole&tag=pol&polymerid=5809&target=ALK+tyrosine+kinase+receptor&column=ki&startPg=0&Increment=50&submit=Search

> <Link to Ligand-Target Pair in BindingDB>
http://www.bindingdb.org/jsp/dbsearch/PrimarySearch_ki.jsp?energyterm=kJ/mole&tag=r21&monomerid=50116688&enzyme=ALK+tyrosine+kinase+receptor&column=ki&startPg=0&Increment=50&submit=Search

> <Ligand HET ID in PDB>


> <PDB ID(s) for Ligand-Target Complex>


> <PubChem CID>
122187045

> <PubChem SID>
319494336

> <ChEBI ID of Ligand>


> <ChEMBL ID of Ligand>
CHEMBL3608646

> <DrugBank ID of Ligand>


> <IUPHAR_GRAC ID of Ligand>


> <KEGG ID of Ligand>


> <ZINC ID of Ligand>


> <Number of Protein Chains in Target (>1 implies a multichain complex)>
1

> <BindingDB Target Chain Sequence>
MGAIGLLWLLPLLLSTAAVGSGMGTGQRAGSPAAGPPLQPREPLSYSRLQRKSLAVDFVVPSLFRVYARDLLLPPSSSELKAGRPEARGSLALDCAPLLRLLGPAPGVSWTAGSPAPAEARTLSRVLKGGSVRKLRRAKQLVLELGEEAILEGCVGPPGEAAVGLLQFNLSELFSWWIRQGEGRLRIRLMPEKKASEVGREGRLSAAIRASQPRLLFQIFGTGHSSLESPTNMPSPSPDYFTWNLTWIMKDSFPFLSHRSRYGLECSFDFPCELEYSPPLHDLRNQSWSWRRIPSEEASQMDLLDGPGAERSKEMPRGSFLLLNTSADSKHTILSPWMRSSSEHCTLAVSVHRHLQPSGRYIAQLLPHNEAAREILLMPTPGKHGWTVLQGRIGRPDNPFRVALEYISSGNRSLSAVDFFALKNCSEGTSPGSKMALQSSFTCWNGTVLQLGQACDFHQDCAQGEDESQMCRKLPVGFYCNFEDGFCGWTQGTLSPHTPQWQVRTLKDARFQDHQDHALLLSTTDVPASESATVTSATFPAPIKSSPCELRMSWLIRGVLRGNVSLVLVENKTGKEQGRMVWHVAAYEGLSLWQWMVLPLLDVSDRFWLQMVAWWGQGSRAIVAFDNISISLDCYLTISGEDKILQNTAPKSRNLFERNPNKELKPGENSPRQTPIFDPTVHWLFTTCGASGPHGPTQAQCNNAYQNSNLSVEVGSEGPLKGIQIWKVPATDTYSISGYGAAGGKGGKNTMMRSHGVSVLGIFNLEKDDMLYILVGQQGEDACPSTNQLIQKVCIGENNVIEEEIRVNRSVHEWAGGGGGGGGATYVFKMKDGVPVPLIIAAGGGGRAYGAKTDTFHPERLENNSSVLGLNGNSGAAGGGGGWNDNTSLLWAGKSLQEGATGGHSCPQAMKKWGWETRGGFGGGGGGCSSGGGGGGYIGGNAASNNDPEMDGEDGVSFISPLGILYTPALKVMEGHGEVNIKHYLNCSHCEVDECHMDPESHKVICFCDHGTVLAEDGVSCIVSPTPEPHLPLSLILSVVTSALVAALVLAFSGIMIVYRRKHQELQAMQMELQSPEYKLSKLRTSTIMTDYNPNYCFAGKTSSISDLKEVPRKNITLIRGLGHGAFGEVYEGQVSGMPNDPSPLQVAVKTLPEVCSEQDELDFLMEALIISKFNHQNIVRCIGVSLQSLPRFILLELMAGGDLKSFLRETRPRPSQPSSLAMLDLLHVARDIACGCQYLEENHFIHRDIAARNCLLTCPGPGRVAKIGDFGMARDIYRASYYRKGGCAMLPVKWMPPEAFMEGIFTSKTDTWSFGVLLWEIFSLGYMPYPSKSNQEVLEFVTSGGRMDPPKNCPGPVYRIMTQCWQHQPEDRPNFAIILERIEYCTQDPDVINTALPIEYGPLVEEEEKVPVRPKDPEGVPPLLVSQQAKREEERSPAAPPPLPTTSSGKAAKKPTAAEISVRVPRGPAVEGGHVNMAFSQSNPPSELHKVHGSRNKPTSLWNPTYGSWFTEKPTKKNNPIAKKEPHDRGNLGLEGSCTVPPNVATGRLPGASLLLEPSSLTANMKEVPLFRLRHFPCGNVNYGYQQQGLPLEAATAPGAGHYEDTILKSKNSMNQPGP

> <PDB ID(s) of Target Chain>
2XB7,2XBA,3AOX,5FTO,5FTQ,6E0R,6EBW,6EDL,6MX8

> <UniProt (SwissProt) Recommended Name of Target Chain>
ALK tyrosine kinase receptor

> <UniProt (SwissProt) Entry Name of Target Chain>
ALK_HUMAN

> <UniProt (SwissProt) Primary ID of Target Chain>
Q9UM73

> <UniProt (SwissProt) Secondary ID(s) of Target Chain>
Q4ZFX9,Q53QQ6,Q53RZ4,Q59FI3,Q9Y4K6

> <UniProt (SwissProt) Alternative ID(s) of Target Chain>


> <UniProt (TrEMBL) Submitted Name of Target Chain>


> <UniProt (TrEMBL) Entry Name of Target Chain>


> <UniProt (TrEMBL) Primary ID of Target Chain>


> <UniProt (TrEMBL) Secondary ID(s) of Target Chain>


> <UniProt (TrEMBL) Alternative ID(s) of Target Chain>


$$$$

  SciTegic04201609482D

 36 39  0  0  0  0            999 V2000
   -4.1157    6.0164    0.0000 C   0  0
   -5.4175    5.2712    0.0000 C   0  0
   -5.4230    3.7712    0.0000 N   0  0
   -4.1268    3.0163    0.0000 C   0  0
   -2.8250    3.7616    0.0000 N   0  0
   -2.8195    5.2616    0.0000 C   0  0
   -4.1113    7.2164    0.0000 Cl  0  0
   -4.1292    1.5155    0.0000 N   0  0
   -1.5154    6.0046    0.0000 N   0  0
   -0.2195    5.2476    0.0000 C   0  0
   -0.2301    3.7475    0.0000 C   0  0
    1.0635    2.9883    0.0000 C   0  0
    2.3679    3.7290    0.0000 C   0  0
    2.3786    5.2290    0.0000 C   0  0
    1.0849    5.9882    0.0000 C   0  0
    1.0957    7.4890    0.0000 S   0  0
    2.4003    8.2309    0.0000 C   0  0
    2.4089    9.4309    0.0000 C   0  0
    3.4354    7.6238    0.0000 C   0  0
    1.1037    8.6890    0.0000 O   0  0
    0.0606    8.0961    0.0000 O   0  0
   -2.8315    0.7623    0.0000 C   0  0
   -2.8315   -0.7623    0.0000 C   0  0
   -1.4884   -1.5247    0.0000 C   0  0
   -1.4884    1.5247    0.0000 C   0  0
    0.7442   -1.6517    0.0000 C   0  0
    2.2325   -1.4158    0.0000 C   0  0
    2.9404    0.0000    0.0000 C   0  0
    0.0000   -0.7623    0.0000 C   0  0
    0.0000    0.7623    0.0000 C   0  0
    0.7805    1.6880    0.0000 C   0  0
    2.2507    1.3976    0.0000 N   0  0
   -4.1292   -1.5155    0.0000 O   0  0
   -4.1273   -2.7155    0.0000 C   0  0
    3.1520    2.5995    0.0000 C   0  0
    4.3435    2.4571    0.0000 C   0  0
  1  2  2  0
  2  3  1  0
  3  4  2  0
  4  5  1  0
  5  6  2  0
  6  1  1  0
  1  7  1  0
  4  8  1  0
  6  9  1  0
  9 10  1  0
 10 11  2  0
 11 12  1  0
 12 13  2  0
 13 14  1  0
 14 15  2  0
 15 10  1  0
 15 16  1  0
 16 17  1  0
 17 18  1  0
 17 19  1  0
 16 20  2  0
 16 21  2  0
  8 22  1  0
 22 23  2  0
 23 24  1  0
 24 29  2  0
 30 25  2  0
 25 22  1  0
 26 27  1  0
 27 28  1  0
 26 29  1  0
 30 31  1  0
 31 32  1  0
 32 28  1  0
 29 30  1  0
 23 33  1  0
 33 34  1  0
 32 35  1  0
 35 36  1  0
M  END
> <From>
www.bindingDB.org

> <BindingDB Reactant_set_id>
50405192

> <Ligand InChI>
InChI=1S/C26H32ClN5O3S/c1-5-32-12-8-9-18-14-23(35-4)22(13-19(18)16-32)30-26-28-15-20(27)25(31-26)29-21-10-6-7-11-24(21)36(33,34)17(2)3/h6-7,10-11,13-15,17H,5,8-9,12,16H2,1-4H3,(H2,28,29,30,31)

> <Ligand InChI Key>
GYKCLKQWDUOGKZ-UHFFFAOYSA-N

> <BindingDB MonomerID>
50116689

> <BindingDB Ligand Name>
CHEMBL3608527::US10053458, 58

> <Target Name Assigned by Curator or DataSource>
ALK tyrosine kinase receptor

> <Target Source Organism According to Curator or DataSource>
Homo sapiens

> <Ki (nM)>


> <IC50 (nM)>
 7200

> <Kd (nM)>


> <EC50 (nM)>


> <kon (M-1-s-1)>


> <koff (s-1)>


> <pH>


> <Temp C>


> <Curation/DataSource>
ChEMBL

> <Article DOI>
10.1016/j.bmcl.2015.07.004

> <PMID>
26235945

> <PubChem AID>


> <Patent Number>


> <Authors>
Kang, GA; Lee, M; Song, D; Lee, HK; Ahn, S; Park, CH; Lee, CO; Yun, CS; Jung, H; Kim, P; Ha, JD; Cho, SY; Kim, HR; Hwang, JY

> <Institution>
Korea Research Institute of Chemical Technology

> <Link to Ligand in BindingDB>
http://www.bindingdb.org/bind/chemsearch/marvin/MolStructure.jsp?monomerid=50116689

> <Link to Ligand-Target Pair in BindingDB>
http://www.bindingdb.org/jsp/dbsearch/PrimarySearch_ki.jsp?energyterm=kJ/mole&tag=pol&polymerid=5809&target=ALK+tyrosine+kinase+receptor&column=ki&startPg=0&Increment=50&submit=Search

> <Link to Ligand-Target Pair in BindingDB>
http://www.bindingdb.org/jsp/dbsearch/PrimarySearch_ki.jsp?energyterm=kJ/mole&tag=r21&monomerid=50116689&enzyme=ALK+tyrosine+kinase+receptor&column=ki&startPg=0&Increment=50&submit=Search

> <Ligand HET ID in PDB>


> <PDB ID(s) for Ligand-Target Complex>


> <PubChem CID>
122186942

> <PubChem SID>
319494337

> <ChEBI ID of Ligand>


> <ChEMBL ID of Ligand>
CHEMBL3608527

> <DrugBank ID of Ligand>


> <IUPHAR_GRAC ID of Ligand>


> <KEGG ID of Ligand>


> <ZINC ID of Ligand>


> <Number of Protein Chains in Target (>1 implies a multichain complex)>
1

> <BindingDB Target Chain Sequence>
MGAIGLLWLLPLLLSTAAVGSGMGTGQRAGSPAAGPPLQPREPLSYSRLQRKSLAVDFVVPSLFRVYARDLLLPPSSSELKAGRPEARGSLALDCAPLLRLLGPAPGVSWTAGSPAPAEARTLSRVLKGGSVRKLRRAKQLVLELGEEAILEGCVGPPGEAAVGLLQFNLSELFSWWIRQGEGRLRIRLMPEKKASEVGREGRLSAAIRASQPRLLFQIFGTGHSSLESPTNMPSPSPDYFTWNLTWIMKDSFPFLSHRSRYGLECSFDFPCELEYSPPLHDLRNQSWSWRRIPSEEASQMDLLDGPGAERSKEMPRGSFLLLNTSADSKHTILSPWMRSSSEHCTLAVSVHRHLQPSGRYIAQLLPHNEAAREILLMPTPGKHGWTVLQGRIGRPDNPFRVALEYISSGNRSLSAVDFFALKNCSEGTSPGSKMALQSSFTCWNGTVLQLGQACDFHQDCAQGEDESQMCRKLPVGFYCNFEDGFCGWTQGTLSPHTPQWQVRTLKDARFQDHQDHALLLSTTDVPASESATVTSATFPAPIKSSPCELRMSWLIRGVLRGNVSLVLVENKTGKEQGRMVWHVAAYEGLSLWQWMVLPLLDVSDRFWLQMVAWWGQGSRAIVAFDNISISLDCYLTISGEDKILQNTAPKSRNLFERNPNKELKPGENSPRQTPIFDPTVHWLFTTCGASGPHGPTQAQCNNAYQNSNLSVEVGSEGPLKGIQIWKVPATDTYSISGYGAAGGKGGKNTMMRSHGVSVLGIFNLEKDDMLYILVGQQGEDACPSTNQLIQKVCIGENNVIEEEIRVNRSVHEWAGGGGGGGGATYVFKMKDGVPVPLIIAAGGGGRAYGAKTDTFHPERLENNSSVLGLNGNSGAAGGGGGWNDNTSLLWAGKSLQEGATGGHSCPQAMKKWGWETRGGFGGGGGGCSSGGGGGGYIGGNAASNNDPEMDGEDGVSFISPLGILYTPALKVMEGHGEVNIKHYLNCSHCEVDECHMDPESHKVICFCDHGTVLAEDGVSCIVSPTPEPHLPLSLILSVVTSALVAALVLAFSGIMIVYRRKHQELQAMQMELQSPEYKLSKLRTSTIMTDYNPNYCFAGKTSSISDLKEVPRKNITLIRGLGHGAFGEVYEGQVSGMPNDPSPLQVAVKTLPEVCSEQDELDFLMEALIISKFNHQNIVRCIGVSLQSLPRFILLELMAGGDLKSFLRETRPRPSQPSSLAMLDLLHVARDIACGCQYLEENHFIHRDIAARNCLLTCPGPGRVAKIGDFGMARDIYRASYYRKGGCAMLPVKWMPPEAFMEGIFTSKTDTWSFGVLLWEIFSLGYMPYPSKSNQEVLEFVTSGGRMDPPKNCPGPVYRIMTQCWQHQPEDRPNFAIILERIEYCTQDPDVINTALPIEYGPLVEEEEKVPVRPKDPEGVPPLLVSQQAKREEERSPAAPPPLPTTSSGKAAKKPTAAEISVRVPRGPAVEGGHVNMAFSQSNPPSELHKVHGSRNKPTSLWNPTYGSWFTEKPTKKNNPIAKKEPHDRGNLGLEGSCTVPPNVATGRLPGASLLLEPSSLTANMKEVPLFRLRHFPCGNVNYGYQQQGLPLEAATAPGAGHYEDTILKSKNSMNQPGP

> <PDB ID(s) of Target Chain>
2XB7,2XBA,3AOX,5FTO,5FTQ,6E0R,6EBW,6EDL,6MX8

> <UniProt (SwissProt) Recommended Name of Target Chain>
ALK tyrosine kinase receptor

> <UniProt (SwissProt) Entry Name of Target Chain>
ALK_HUMAN

> <UniProt (SwissProt) Primary ID of Target Chain>
Q9UM73

> <UniProt (SwissProt) Secondary ID(s) of Target Chain>
Q4ZFX9,Q53QQ6,Q53RZ4,Q59FI3,Q9Y4K6

> <UniProt (SwissProt) Alternative ID(s) of Target Chain>


> <UniProt (TrEMBL) Submitted Name of Target Chain>


> <UniProt (TrEMBL) Entry Name of Target Chain>


> <UniProt (TrEMBL) Primary ID of Target Chain>


> <UniProt (TrEMBL) Secondary ID(s) of Target Chain>


> <UniProt (TrEMBL) Alternative ID(s) of Target Chain>


$$$$

  SciTegic04201609482D

 36 39  0  0  0  0            999 V2000
   -4.1157    6.0164    0.0000 C   0  0
   -5.4175    5.2712    0.0000 C   0  0
   -5.4230    3.7712    0.0000 N   0  0
   -4.1268    3.0163    0.0000 C   0  0
   -2.8250    3.7616    0.0000 N   0  0
   -2.8195    5.2616    0.0000 C   0  0
   -4.1113    7.2164    0.0000 Cl  0  0
   -4.1292    1.5155    0.0000 N   0  0
   -1.5154    6.0046    0.0000 N   0  0
   -0.2195    5.2476    0.0000 C   0  0
   -0.2301    3.7475    0.0000 C   0  0
    1.0635    2.9883    0.0000 C   0  0
    2.3679    3.7290    0.0000 C   0  0
    2.3786    5.2290    0.0000 C   0  0
    1.0849    5.9882    0.0000 C   0  0
    1.0957    7.4890    0.0000 S   0  0
    2.4003    8.2309    0.0000 C   0  0
    2.4089    9.4309    0.0000 C   0  0
    3.4354    7.6238    0.0000 C   0  0
    1.1037    8.6890    0.0000 O   0  0
    0.0606    8.0961    0.0000 O   0  0
   -2.8315    0.7623    0.0000 C   0  0
   -2.8315   -0.7623    0.0000 C   0  0
   -1.4884   -1.5247    0.0000 C   0  0
   -1.4884    1.5247    0.0000 C   0  0
    0.7442   -1.6517    0.0000 C   0  0
    2.2325   -1.4158    0.0000 C   0  0
    2.9404    0.0000    0.0000 N   0  0
    0.0000   -0.7623    0.0000 C   0  0
    0.0000    0.7623    0.0000 C   0  0
    0.7805    1.6880    0.0000 C   0  0
    2.2507    1.3976    0.0000 C   0  0
   -4.1292   -1.5155    0.0000 O   0  0
   -4.1273   -2.7155    0.0000 C   0  0
    4.4422    0.0064    0.0000 C   0  0
    5.0383    1.0479    0.0000 C   0  0
  1  2  2  0
  2  3  1  0
  3  4  2  0
  4  5  1  0
  5  6  2  0
  6  1  1  0
  1  7  1  0
  4  8  1  0
  6  9  1  0
  9 10  1  0
 10 11  2  0
 11 12  1  0
 12 13  2  0
 13 14  1  0
 14 15  2  0
 15 10  1  0
 15 16  1  0
 16 17  1  0
 17 18  1  0
 17 19  1  0
 16 20  2  0
 16 21  2  0
  8 22  1  0
 22 23  2  0
 23 24  1  0
 24 29  2  0
 30 25  2  0
 25 22  1  0
 26 27  1  0
 27 28  1  0
 26 29  1  0
 30 31  1  0
 31 32  1  0
 32 28  1  0
 29 30  1  0
 23 33  1  0
 33 34  1  0
 28 35  1  0
 35 36  1  0
M  END
> <From>
www.bindingDB.org

> <BindingDB Reactant_set_id>
50405193

> <Ligand InChI>
InChI=1S/C26H32ClN5O3S/c1-5-32-12-10-18-14-22(23(35-4)15-19(18)11-13-32)30-26-28-16-20(27)25(31-26)29-21-8-6-7-9-24(21)36(33,34)17(2)3/h6-9,14-17H,5,10-13H2,1-4H3,(H2,28,29,30,31)

> <Ligand InChI Key>
HULMBKWINBUXAH-UHFFFAOYSA-N

> <BindingDB MonomerID>
50116690

> <BindingDB Ligand Name>
CHEMBL3608528::US10053458, 67

> <Target Name Assigned by Curator or DataSource>
ALK tyrosine kinase receptor

> <Target Source Organism According to Curator or DataSource>
Homo sapiens

> <Ki (nM)>


> <IC50 (nM)>
 6100

> <Kd (nM)>


> <EC50 (nM)>


> <kon (M-1-s-1)>


> <koff (s-1)>


> <pH>


> <Temp C>


> <Curation/DataSource>
ChEMBL

> <Article DOI>
10.1016/j.bmcl.2015.07.004

> <PMID>
26235945

> <PubChem AID>


> <Patent Number>


> <Authors>
Kang, GA; Lee, M; Song, D; Lee, HK; Ahn, S; Park, CH; Lee, CO; Yun, CS; Jung, H; Kim, P; Ha, JD; Cho, SY; Kim, HR; Hwang, JY

> <Institution>
Korea Research Institute of Chemical Technology

> <Link to Ligand in BindingDB>
http://www.bindingdb.org/bind/chemsearch/marvin/MolStructure.jsp?monomerid=50116690

> <Link to Ligand-Target Pair in BindingDB>
http://www.bindingdb.org/jsp/dbsearch/PrimarySearch_ki.jsp?energyterm=kJ/mole&tag=pol&polymerid=5809&target=ALK+tyrosine+kinase+receptor&column=ki&startPg=0&Increment=50&submit=Search

> <Link to Ligand-Target Pair in BindingDB>
http://www.bindingdb.org/jsp/dbsearch/PrimarySearch_ki.jsp?energyterm=kJ/mole&tag=r21&monomerid=50116690&enzyme=ALK+tyrosine+kinase+receptor&column=ki&startPg=0&Increment=50&submit=Search

> <Ligand HET ID in PDB>


> <PDB ID(s) for Ligand-Target Complex>


> <PubChem CID>
122186943

> <PubChem SID>
319494338

> <ChEBI ID of Ligand>


> <ChEMBL ID of Ligand>
CHEMBL3608528

> <DrugBank ID of Ligand>


> <IUPHAR_GRAC ID of Ligand>


> <KEGG ID of Ligand>


> <ZINC ID of Ligand>


> <Number of Protein Chains in Target (>1 implies a multichain complex)>
1

> <BindingDB Target Chain Sequence>
MGAIGLLWLLPLLLSTAAVGSGMGTGQRAGSPAAGPPLQPREPLSYSRLQRKSLAVDFVVPSLFRVYARDLLLPPSSSELKAGRPEARGSLALDCAPLLRLLGPAPGVSWTAGSPAPAEARTLSRVLKGGSVRKLRRAKQLVLELGEEAILEGCVGPPGEAAVGLLQFNLSELFSWWIRQGEGRLRIRLMPEKKASEVGREGRLSAAIRASQPRLLFQIFGTGHSSLESPTNMPSPSPDYFTWNLTWIMKDSFPFLSHRSRYGLECSFDFPCELEYSPPLHDLRNQSWSWRRIPSEEASQMDLLDGPGAERSKEMPRGSFLLLNTSADSKHTILSPWMRSSSEHCTLAVSVHRHLQPSGRYIAQLLPHNEAAREILLMPTPGKHGWTVLQGRIGRPDNPFRVALEYISSGNRSLSAVDFFALKNCSEGTSPGSKMALQSSFTCWNGTVLQLGQACDFHQDCAQGEDESQMCRKLPVGFYCNFEDGFCGWTQGTLSPHTPQWQVRTLKDARFQDHQDHALLLSTTDVPASESATVTSATFPAPIKSSPCELRMSWLIRGVLRGNVSLVLVENKTGKEQGRMVWHVAAYEGLSLWQWMVLPLLDVSDRFWLQMVAWWGQGSRAIVAFDNISISLDCYLTISGEDKILQNTAPKSRNLFERNPNKELKPGENSPRQTPIFDPTVHWLFTTCGASGPHGPTQAQCNNAYQNSNLSVEVGSEGPLKGIQIWKVPATDTYSISGYGAAGGKGGKNTMMRSHGVSVLGIFNLEKDDMLYILVGQQGEDACPSTNQLIQKVCIGENNVIEEEIRVNRSVHEWAGGGGGGGGATYVFKMKDGVPVPLIIAAGGGGRAYGAKTDTFHPERLENNSSVLGLNGNSGAAGGGGGWNDNTSLLWAGKSLQEGATGGHSCPQAMKKWGWETRGGFGGGGGGCSSGGGGGGYIGGNAASNNDPEMDGEDGVSFISPLGILYTPALKVMEGHGEVNIKHYLNCSHCEVDECHMDPESHKVICFCDHGTVLAEDGVSCIVSPTPEPHLPLSLILSVVTSALVAALVLAFSGIMIVYRRKHQELQAMQMELQSPEYKLSKLRTSTIMTDYNPNYCFAGKTSSISDLKEVPRKNITLIRGLGHGAFGEVYEGQVSGMPNDPSPLQVAVKTLPEVCSEQDELDFLMEALIISKFNHQNIVRCIGVSLQSLPRFILLELMAGGDLKSFLRETRPRPSQPSSLAMLDLLHVARDIACGCQYLEENHFIHRDIAARNCLLTCPGPGRVAKIGDFGMARDIYRASYYRKGGCAMLPVKWMPPEAFMEGIFTSKTDTWSFGVLLWEIFSLGYMPYPSKSNQEVLEFVTSGGRMDPPKNCPGPVYRIMTQCWQHQPEDRPNFAIILERIEYCTQDPDVINTALPIEYGPLVEEEEKVPVRPKDPEGVPPLLVSQQAKREEERSPAAPPPLPTTSSGKAAKKPTAAEISVRVPRGPAVEGGHVNMAFSQSNPPSELHKVHGSRNKPTSLWNPTYGSWFTEKPTKKNNPIAKKEPHDRGNLGLEGSCTVPPNVATGRLPGASLLLEPSSLTANMKEVPLFRLRHFPCGNVNYGYQQQGLPLEAATAPGAGHYEDTILKSKNSMNQPGP

> <PDB ID(s) of Target Chain>
2XB7,2XBA,3AOX,5FTO,5FTQ,6E0R,6EBW,6EDL,6MX8

> <UniProt (SwissProt) Recommended Name of Target Chain>
ALK tyrosine kinase receptor

> <UniProt (SwissProt) Entry Name of Target Chain>
ALK_HUMAN

> <UniProt (SwissProt) Primary ID of Target Chain>
Q9UM73

> <UniProt (SwissProt) Secondary ID(s) of Target Chain>
Q4ZFX9,Q53QQ6,Q53RZ4,Q59FI3,Q9Y4K6

> <UniProt (SwissProt) Alternative ID(s) of Target Chain>


> <UniProt (TrEMBL) Submitted Name of Target Chain>


> <UniProt (TrEMBL) Entry Name of Target Chain>


> <UniProt (TrEMBL) Primary ID of Target Chain>


> <UniProt (TrEMBL) Secondary ID(s) of Target Chain>


> <UniProt (TrEMBL) Alternative ID(s) of Target Chain>


$$$$

  SciTegic04201609482D

 37 40  0  0  0  0            999 V2000
   -4.1157    6.0164    0.0000 C   0  0
   -5.4175    5.2712    0.0000 C   0  0
   -5.4230    3.7712    0.0000 N   0  0
   -4.1268    3.0163    0.0000 C   0  0
   -2.8250    3.7616    0.0000 N   0  0
   -2.8195    5.2616    0.0000 C   0  0
   -4.1113    7.2164    0.0000 Cl  0  0
   -4.1292    1.5155    0.0000 N   0  0
   -1.5154    6.0046    0.0000 N   0  0
   -0.2195    5.2476    0.0000 C   0  0
   -0.2301    3.7475    0.0000 C   0  0
    1.0635    2.9883    0.0000 C   0  0
    2.3679    3.7290    0.0000 C   0  0
    2.3786    5.2290    0.0000 C   0  0
    1.0849    5.9882    0.0000 C   0  0
    1.0957    7.4890    0.0000 S   0  0
    2.4003    8.2309    0.0000 C   0  0
    2.4089    9.4309    0.0000 C   0  0
    3.4354    7.6238    0.0000 C   0  0
    1.1037    8.6890    0.0000 O   0  0
    0.0606    8.0961    0.0000 O   0  0
   -2.8315    0.7623    0.0000 C   0  0
   -2.8315   -0.7623    0.0000 C   0  0
   -1.4884   -1.5247    0.0000 C   0  0
   -1.4884    1.5247    0.0000 C   0  0
    0.7442   -1.6517    0.0000 C   0  0
    2.2325   -1.4158    0.0000 N   0  0
    2.9404    0.0000    0.0000 C   0  0
    0.0000   -0.7623    0.0000 C   0  0
    0.0000    0.7623    0.0000 C   0  0
    0.7805    1.6880    0.0000 C   0  0
    2.2507    1.3976    0.0000 C   0  0
   -4.1292   -1.5155    0.0000 O   0  0
   -4.1273   -2.7155    0.0000 C   0  0
    3.1043   -2.6385    0.0000 C   0  0
    2.6057   -3.7300    0.0000 C   0  0
    4.2989   -2.5249    0.0000 O   0  0
  1  2  2  0
  2  3  1  0
  3  4  2  0
  4  5  1  0
  5  6  2  0
  6  1  1  0
  1  7  1  0
  4  8  1  0
  6  9  1  0
  9 10  1  0
 10 11  2  0
 11 12  1  0
 12 13  2  0
 13 14  1  0
 14 15  2  0
 15 10  1  0
 15 16  1  0
 16 17  1  0
 17 18  1  0
 17 19  1  0
 16 20  2  0
 16 21  2  0
  8 22  1  0
 22 23  2  0
 23 24  1  0
 24 29  2  0
 30 25  2  0
 25 22  1  0
 26 27  1  0
 27 28  1  0
 26 29  1  0
 30 31  1  0
 31 32  1  0
 32 28  1  0
 29 30  1  0
 23 33  1  0
 33 34  1  0
 27 35  1  0
 35 36  1  0
 35 37  2  0
M  END
> <From>
www.bindingDB.org

> <BindingDB Reactant_set_id>
50405194

> <Ligand InChI>
InChI=1S/C26H30ClN5O4S/c1-16(2)37(34,35)24-10-6-5-9-21(24)29-25-20(27)14-28-26(31-25)30-22-12-18-8-7-11-32(17(3)33)15-19(18)13-23(22)36-4/h5-6,9-10,12-14,16H,7-8,11,15H2,1-4H3,(H2,28,29,30,31)

> <Ligand InChI Key>
CPQPQASNGAKBFB-UHFFFAOYSA-N

> <BindingDB MonomerID>
50116691

> <BindingDB Ligand Name>
CHEMBL3608529::US10053458, 50

> <Target Name Assigned by Curator or DataSource>
ALK tyrosine kinase receptor

> <Target Source Organism According to Curator or DataSource>
Homo sapiens

> <Ki (nM)>


> <IC50 (nM)>
 2700

> <Kd (nM)>


> <EC50 (nM)>


> <kon (M-1-s-1)>


> <koff (s-1)>


> <pH>


> <Temp C>


> <Curation/DataSource>
ChEMBL

> <Article DOI>
10.1016/j.bmcl.2015.07.004

> <PMID>
26235945

> <PubChem AID>


> <Patent Number>


> <Authors>
Kang, GA; Lee, M; Song, D; Lee, HK; Ahn, S; Park, CH; Lee, CO; Yun, CS; Jung, H; Kim, P; Ha, JD; Cho, SY; Kim, HR; Hwang, JY

> <Institution>
Korea Research Institute of Chemical Technology

> <Link to Ligand in BindingDB>
http://www.bindingdb.org/bind/chemsearch/marvin/MolStructure.jsp?monomerid=50116691

> <Link to Ligand-Target Pair in BindingDB>
http://www.bindingdb.org/jsp/dbsearch/PrimarySearch_ki.jsp?energyterm=kJ/mole&tag=pol&polymerid=5809&target=ALK+tyrosine+kinase+receptor&column=ki&startPg=0&Increment=50&submit=Search

> <Link to Ligand-Target Pair in BindingDB>
http://www.bindingdb.org/jsp/dbsearch/PrimarySearch_ki.jsp?energyterm=kJ/mole&tag=r21&monomerid=50116691&enzyme=ALK+tyrosine+kinase+receptor&column=ki&startPg=0&Increment=50&submit=Search

> <Ligand HET ID in PDB>


> <PDB ID(s) for Ligand-Target Complex>


> <PubChem CID>
122186944

> <PubChem SID>
319494339

> <ChEBI ID of Ligand>


> <ChEMBL ID of Ligand>
CHEMBL3608529

> <DrugBank ID of Ligand>


> <IUPHAR_GRAC ID of Ligand>


> <KEGG ID of Ligand>


> <ZINC ID of Ligand>


> <Number of Protein Chains in Target (>1 implies a multichain complex)>
1

> <BindingDB Target Chain Sequence>
MGAIGLLWLLPLLLSTAAVGSGMGTGQRAGSPAAGPPLQPREPLSYSRLQRKSLAVDFVVPSLFRVYARDLLLPPSSSELKAGRPEARGSLALDCAPLLRLLGPAPGVSWTAGSPAPAEARTLSRVLKGGSVRKLRRAKQLVLELGEEAILEGCVGPPGEAAVGLLQFNLSELFSWWIRQGEGRLRIRLMPEKKASEVGREGRLSAAIRASQPRLLFQIFGTGHSSLESPTNMPSPSPDYFTWNLTWIMKDSFPFLSHRSRYGLECSFDFPCELEYSPPLHDLRNQSWSWRRIPSEEASQMDLLDGPGAERSKEMPRGSFLLLNTSADSKHTILSPWMRSSSEHCTLAVSVHRHLQPSGRYIAQLLPHNEAAREILLMPTPGKHGWTVLQGRIGRPDNPFRVALEYISSGNRSLSAVDFFALKNCSEGTSPGSKMALQSSFTCWNGTVLQLGQACDFHQDCAQGEDESQMCRKLPVGFYCNFEDGFCGWTQGTLSPHTPQWQVRTLKDARFQDHQDHALLLSTTDVPASESATVTSATFPAPIKSSPCELRMSWLIRGVLRGNVSLVLVENKTGKEQGRMVWHVAAYEGLSLWQWMVLPLLDVSDRFWLQMVAWWGQGSRAIVAFDNISISLDCYLTISGEDKILQNTAPKSRNLFERNPNKELKPGENSPRQTPIFDPTVHWLFTTCGASGPHGPTQAQCNNAYQNSNLSVEVGSEGPLKGIQIWKVPATDTYSISGYGAAGGKGGKNTMMRSHGVSVLGIFNLEKDDMLYILVGQQGEDACPSTNQLIQKVCIGENNVIEEEIRVNRSVHEWAGGGGGGGGATYVFKMKDGVPVPLIIAAGGGGRAYGAKTDTFHPERLENNSSVLGLNGNSGAAGGGGGWNDNTSLLWAGKSLQEGATGGHSCPQAMKKWGWETRGGFGGGGGGCSSGGGGGGYIGGNAASNNDPEMDGEDGVSFISPLGILYTPALKVMEGHGEVNIKHYLNCSHCEVDECHMDPESHKVICFCDHGTVLAEDGVSCIVSPTPEPHLPLSLILSVVTSALVAALVLAFSGIMIVYRRKHQELQAMQMELQSPEYKLSKLRTSTIMTDYNPNYCFAGKTSSISDLKEVPRKNITLIRGLGHGAFGEVYEGQVSGMPNDPSPLQVAVKTLPEVCSEQDELDFLMEALIISKFNHQNIVRCIGVSLQSLPRFILLELMAGGDLKSFLRETRPRPSQPSSLAMLDLLHVARDIACGCQYLEENHFIHRDIAARNCLLTCPGPGRVAKIGDFGMARDIYRASYYRKGGCAMLPVKWMPPEAFMEGIFTSKTDTWSFGVLLWEIFSLGYMPYPSKSNQEVLEFVTSGGRMDPPKNCPGPVYRIMTQCWQHQPEDRPNFAIILERIEYCTQDPDVINTALPIEYGPLVEEEEKVPVRPKDPEGVPPLLVSQQAKREEERSPAAPPPLPTTSSGKAAKKPTAAEISVRVPRGPAVEGGHVNMAFSQSNPPSELHKVHGSRNKPTSLWNPTYGSWFTEKPTKKNNPIAKKEPHDRGNLGLEGSCTVPPNVATGRLPGASLLLEPSSLTANMKEVPLFRLRHFPCGNVNYGYQQQGLPLEAATAPGAGHYEDTILKSKNSMNQPGP

> <PDB ID(s) of Target Chain>
2XB7,2XBA,3AOX,5FTO,5FTQ,6E0R,6EBW,6EDL,6MX8

> <UniProt (SwissProt) Recommended Name of Target Chain>
ALK tyrosine kinase receptor

> <UniProt (SwissProt) Entry Name of Target Chain>
ALK_HUMAN

> <UniProt (SwissProt) Primary ID of Target Chain>
Q9UM73

> <UniProt (SwissProt) Secondary ID(s) of Target Chain>
Q4ZFX9,Q53QQ6,Q53RZ4,Q59FI3,Q9Y4K6

> <UniProt (SwissProt) Alternative ID(s) of Target Chain>


> <UniProt (TrEMBL) Submitted Name of Target Chain>


> <UniProt (TrEMBL) Entry Name of Target Chain>


> <UniProt (TrEMBL) Primary ID of Target Chain>


> <UniProt (TrEMBL) Secondary ID(s) of Target Chain>


> <UniProt (TrEMBL) Alternative ID(s) of Target Chain>


$$$$

  SciTegic04201609482D

 37 40  0  0  0  0            999 V2000
   -4.1157    6.0164    0.0000 C   0  0
   -5.4175    5.2712    0.0000 C   0  0
   -5.4230    3.7712    0.0000 N   0  0
   -4.1268    3.0163    0.0000 C   0  0
   -2.8250    3.7616    0.0000 N   0  0
   -2.8195    5.2616    0.0000 C   0  0
   -4.1113    7.2164    0.0000 Cl  0  0
   -4.1292    1.5155    0.0000 N   0  0
   -1.5154    6.0046    0.0000 N   0  0
   -0.2195    5.2476    0.0000 C   0  0
   -0.2301    3.7475    0.0000 C   0  0
    1.0635    2.9883    0.0000 C   0  0
    2.3679    3.7290    0.0000 C   0  0
    2.3786    5.2290    0.0000 C   0  0
    1.0849    5.9882    0.0000 C   0  0
    1.0957    7.4890    0.0000 S   0  0
    2.4003    8.2309    0.0000 C   0  0
    2.4089    9.4309    0.0000 C   0  0
    3.4354    7.6238    0.0000 C   0  0
    1.1037    8.6890    0.0000 O   0  0
    0.0606    8.0961    0.0000 O   0  0
   -5.4292    0.7664    0.0000 C   0  0
   -5.4340   -0.7582    0.0000 C   0  0
   -6.7796   -1.5163    0.0000 C   0  0
   -6.7699    1.5330    0.0000 C   0  0
   -9.0125   -1.6362    0.0000 C   0  0
  -10.5001   -1.3956    0.0000 C   0  0
  -11.2035    0.0224    0.0000 C   0  0
   -8.2655   -0.7492    0.0000 C   0  0
   -8.2607    0.7754    0.0000 C   0  0
   -9.0382    1.7036    0.0000 C   0  0
  -10.5094    1.4178    0.0000 N   0  0
   -4.1388   -1.5155    0.0000 O   0  0
   -4.1445   -2.7155    0.0000 C   0  0
  -11.4068    2.6226    0.0000 C   0  0
  -10.9312    3.7243    0.0000 C   0  0
  -12.5988    2.4839    0.0000 O   0  0
  1  2  2  0
  2  3  1  0
  3  4  2  0
  4  5  1  0
  5  6  2  0
  6  1  1  0
  1  7  1  0
  4  8  1  0
  6  9  1  0
  9 10  1  0
 10 11  2  0
 11 12  1  0
 12 13  2  0
 13 14  1  0
 14 15  2  0
 15 10  1  0
 15 16  1  0
 16 17  1  0
 17 18  1  0
 17 19  1  0
 16 20  2  0
 16 21  2  0
  8 22  1  0
 22 23  2  0
 23 24  1  0
 24 29  2  0
 30 25  2  0
 25 22  1  0
 26 27  1  0
 27 28  1  0
 26 29  1  0
 30 31  1  0
 31 32  1  0
 32 28  1  0
 29 30  1  0
 23 33  1  0
 33 34  1  0
 32 35  1  0
 35 36  1  0
 35 37  2  0
M  END
> <From>
www.bindingDB.org

> <BindingDB Reactant_set_id>
50405195

> <Ligand InChI>
InChI=1S/C26H30ClN5O4S/c1-16(2)37(34,35)24-10-6-5-9-21(24)29-25-20(27)14-28-26(31-25)30-22-12-19-15-32(17(3)33)11-7-8-18(19)13-23(22)36-4/h5-6,9-10,12-14,16H,7-8,11,15H2,1-4H3,(H2,28,29,30,31)

> <Ligand InChI Key>
QRYAORAAWVXYEL-UHFFFAOYSA-N

> <BindingDB MonomerID>
50116692

> <BindingDB Ligand Name>
CHEMBL3608530::US10053458, 59

> <Target Name Assigned by Curator or DataSource>
ALK tyrosine kinase receptor

> <Target Source Organism According to Curator or DataSource>
Homo sapiens

> <Ki (nM)>


> <IC50 (nM)>
 7600

> <Kd (nM)>


> <EC50 (nM)>


> <kon (M-1-s-1)>


> <koff (s-1)>


> <pH>


> <Temp C>


> <Curation/DataSource>
ChEMBL

> <Article DOI>
10.1016/j.bmcl.2015.07.004

> <PMID>
26235945

> <PubChem AID>


> <Patent Number>


> <Authors>
Kang, GA; Lee, M; Song, D; Lee, HK; Ahn, S; Park, CH; Lee, CO; Yun, CS; Jung, H; Kim, P; Ha, JD; Cho, SY; Kim, HR; Hwang, JY

> <Institution>
Korea Research Institute of Chemical Technology

> <Link to Ligand in BindingDB>
http://www.bindingdb.org/bind/chemsearch/marvin/MolStructure.jsp?monomerid=50116692

> <Link to Ligand-Target Pair in BindingDB>
http://www.bindingdb.org/jsp/dbsearch/PrimarySearch_ki.jsp?energyterm=kJ/mole&tag=pol&polymerid=5809&target=ALK+tyrosine+kinase+receptor&column=ki&startPg=0&Increment=50&submit=Search

> <Link to Ligand-Target Pair in BindingDB>
http://www.bindingdb.org/jsp/dbsearch/PrimarySearch_ki.jsp?energyterm=kJ/mole&tag=r21&monomerid=50116692&enzyme=ALK+tyrosine+kinase+receptor&column=ki&startPg=0&Increment=50&submit=Search

> <Ligand HET ID in PDB>


> <PDB ID(s) for Ligand-Target Complex>


> <PubChem CID>
122186945

> <PubChem SID>
319494340

> <ChEBI ID of Ligand>


> <ChEMBL ID of Ligand>
CHEMBL3608530

> <DrugBank ID of Ligand>


> <IUPHAR_GRAC ID of Ligand>


> <KEGG ID of Ligand>


> <ZINC ID of Ligand>


> <Number of Protein Chains in Target (>1 implies a multichain complex)>
1

> <BindingDB Target Chain Sequence>
MGAIGLLWLLPLLLSTAAVGSGMGTGQRAGSPAAGPPLQPREPLSYSRLQRKSLAVDFVVPSLFRVYARDLLLPPSSSELKAGRPEARGSLALDCAPLLRLLGPAPGVSWTAGSPAPAEARTLSRVLKGGSVRKLRRAKQLVLELGEEAILEGCVGPPGEAAVGLLQFNLSELFSWWIRQGEGRLRIRLMPEKKASEVGREGRLSAAIRASQPRLLFQIFGTGHSSLESPTNMPSPSPDYFTWNLTWIMKDSFPFLSHRSRYGLECSFDFPCELEYSPPLHDLRNQSWSWRRIPSEEASQMDLLDGPGAERSKEMPRGSFLLLNTSADSKHTILSPWMRSSSEHCTLAVSVHRHLQPSGRYIAQLLPHNEAAREILLMPTPGKHGWTVLQGRIGRPDNPFRVALEYISSGNRSLSAVDFFALKNCSEGTSPGSKMALQSSFTCWNGTVLQLGQACDFHQDCAQGEDESQMCRKLPVGFYCNFEDGFCGWTQGTLSPHTPQWQVRTLKDARFQDHQDHALLLSTTDVPASESATVTSATFPAPIKSSPCELRMSWLIRGVLRGNVSLVLVENKTGKEQGRMVWHVAAYEGLSLWQWMVLPLLDVSDRFWLQMVAWWGQGSRAIVAFDNISISLDCYLTISGEDKILQNTAPKSRNLFERNPNKELKPGENSPRQTPIFDPTVHWLFTTCGASGPHGPTQAQCNNAYQNSNLSVEVGSEGPLKGIQIWKVPATDTYSISGYGAAGGKGGKNTMMRSHGVSVLGIFNLEKDDMLYILVGQQGEDACPSTNQLIQKVCIGENNVIEEEIRVNRSVHEWAGGGGGGGGATYVFKMKDGVPVPLIIAAGGGGRAYGAKTDTFHPERLENNSSVLGLNGNSGAAGGGGGWNDNTSLLWAGKSLQEGATGGHSCPQAMKKWGWETRGGFGGGGGGCSSGGGGGGYIGGNAASNNDPEMDGEDGVSFISPLGILYTPALKVMEGHGEVNIKHYLNCSHCEVDECHMDPESHKVICFCDHGTVLAEDGVSCIVSPTPEPHLPLSLILSVVTSALVAALVLAFSGIMIVYRRKHQELQAMQMELQSPEYKLSKLRTSTIMTDYNPNYCFAGKTSSISDLKEVPRKNITLIRGLGHGAFGEVYEGQVSGMPNDPSPLQVAVKTLPEVCSEQDELDFLMEALIISKFNHQNIVRCIGVSLQSLPRFILLELMAGGDLKSFLRETRPRPSQPSSLAMLDLLHVARDIACGCQYLEENHFIHRDIAARNCLLTCPGPGRVAKIGDFGMARDIYRASYYRKGGCAMLPVKWMPPEAFMEGIFTSKTDTWSFGVLLWEIFSLGYMPYPSKSNQEVLEFVTSGGRMDPPKNCPGPVYRIMTQCWQHQPEDRPNFAIILERIEYCTQDPDVINTALPIEYGPLVEEEEKVPVRPKDPEGVPPLLVSQQAKREEERSPAAPPPLPTTSSGKAAKKPTAAEISVRVPRGPAVEGGHVNMAFSQSNPPSELHKVHGSRNKPTSLWNPTYGSWFTEKPTKKNNPIAKKEPHDRGNLGLEGSCTVPPNVATGRLPGASLLLEPSSLTANMKEVPLFRLRHFPCGNVNYGYQQQGLPLEAATAPGAGHYEDTILKSKNSMNQPGP

> <PDB ID(s) of Target Chain>
2XB7,2XBA,3AOX,5FTO,5FTQ,6E0R,6EBW,6EDL,6MX8

> <UniProt (SwissProt) Recommended Name of Target Chain>
ALK tyrosine kinase receptor

> <UniProt (SwissProt) Entry Name of Target Chain>
ALK_HUMAN

> <UniProt (SwissProt) Primary ID of Target Chain>
Q9UM73

> <UniProt (SwissProt) Secondary ID(s) of Target Chain>
Q4ZFX9,Q53QQ6,Q53RZ4,Q59FI3,Q9Y4K6

> <UniProt (SwissProt) Alternative ID(s) of Target Chain>


> <UniProt (TrEMBL) Submitted Name of Target Chain>


> <UniProt (TrEMBL) Entry Name of Target Chain>


> <UniProt (TrEMBL) Primary ID of Target Chain>


> <UniProt (TrEMBL) Secondary ID(s) of Target Chain>


> <UniProt (TrEMBL) Alternative ID(s) of Target Chain>


$$$$

  SciTegic04201609482D

 38 41  0  0  0  0            999 V2000
   -4.1157    6.0164    0.0000 C   0  0
   -5.4175    5.2712    0.0000 C   0  0
   -5.4230    3.7712    0.0000 N   0  0
   -4.1268    3.0163    0.0000 C   0  0
   -2.8250    3.7616    0.0000 N   0  0
   -2.8195    5.2616    0.0000 C   0  0
   -4.1113    7.2164    0.0000 Cl  0  0
   -4.1292    1.5155    0.0000 N   0  0
   -1.5154    6.0046    0.0000 N   0  0
   -0.2195    5.2476    0.0000 C   0  0
   -0.2301    3.7475    0.0000 C   0  0
    1.0635    2.9883    0.0000 C   0  0
    2.3679    3.7290    0.0000 C   0  0
    2.3786    5.2290    0.0000 C   0  0
    1.0849    5.9882    0.0000 C   0  0
    1.0957    7.4890    0.0000 S   0  0
    2.4003    8.2309    0.0000 C   0  0
    2.4089    9.4309    0.0000 C   0  0
    3.4354    7.6238    0.0000 C   0  0
    1.1037    8.6890    0.0000 O   0  0
    0.0606    8.0961    0.0000 O   0  0
   -2.8315    0.7623    0.0000 C   0  0
   -2.8315   -0.7623    0.0000 C   0  0
   -1.4884   -1.5247    0.0000 C   0  0
   -1.4884    1.5247    0.0000 C   0  0
    0.7442   -1.6517    0.0000 C   0  0
    2.2325   -1.4158    0.0000 N   0  0
    2.9404    0.0000    0.0000 C   0  0
    0.0000   -0.7623    0.0000 C   0  0
    0.0000    0.7623    0.0000 C   0  0
    0.7805    1.6880    0.0000 C   0  0
    2.2507    1.3976    0.0000 C   0  0
   -4.1292   -1.5155    0.0000 O   0  0
   -4.1273   -2.7155    0.0000 C   0  0
    3.1043   -2.6385    0.0000 C   0  0
    4.5984   -2.4964    0.0000 C   0  0
    2.6057   -3.7300    0.0000 O   0  0
    5.2947   -3.4737    0.0000 O   0  0
  1  2  2  0
  2  3  1  0
  3  4  2  0
  4  5  1  0
  5  6  2  0
  6  1  1  0
  1  7  1  0
  4  8  1  0
  6  9  1  0
  9 10  1  0
 10 11  2  0
 11 12  1  0
 12 13  2  0
 13 14  1  0
 14 15  2  0
 15 10  1  0
 15 16  1  0
 16 17  1  0
 17 18  1  0
 17 19  1  0
 16 20  2  0
 16 21  2  0
  8 22  1  0
 22 23  2  0
 23 24  1  0
 24 29  2  0
 30 25  2  0
 25 22  1  0
 26 27  1  0
 27 28  1  0
 26 29  1  0
 30 31  1  0
 31 32  1  0
 32 28  1  0
 29 30  1  0
 23 33  1  0
 33 34  1  0
 27 35  1  0
 35 36  1  0
 35 37  2  0
 36 38  1  0
M  END
> <From>
www.bindingDB.org

> <BindingDB Reactant_set_id>
50405196

> <Ligand InChI>
InChI=1S/C26H30ClN5O5S/c1-16(2)38(35,36)23-9-5-4-8-20(23)29-25-19(27)13-28-26(31-25)30-21-11-17-7-6-10-32(24(34)15-33)14-18(17)12-22(21)37-3/h4-5,8-9,11-13,16,33H,6-7,10,14-15H2,1-3H3,(H2,28,29,30,31)

> <Ligand InChI Key>
XEYNCJLHGRIWJF-UHFFFAOYSA-N

> <BindingDB MonomerID>
50116693

> <BindingDB Ligand Name>
CHEMBL3608531::US10053458, 51

> <Target Name Assigned by Curator or DataSource>
ALK tyrosine kinase receptor

> <Target Source Organism According to Curator or DataSource>
Homo sapiens

> <Ki (nM)>


> <IC50 (nM)>
 1300

> <Kd (nM)>


> <EC50 (nM)>


> <kon (M-1-s-1)>


> <koff (s-1)>


> <pH>


> <Temp C>


> <Curation/DataSource>
ChEMBL

> <Article DOI>
10.1016/j.bmcl.2015.07.004

> <PMID>
26235945

> <PubChem AID>


> <Patent Number>


> <Authors>
Kang, GA; Lee, M; Song, D; Lee, HK; Ahn, S; Park, CH; Lee, CO; Yun, CS; Jung, H; Kim, P; Ha, JD; Cho, SY; Kim, HR; Hwang, JY

> <Institution>
Korea Research Institute of Chemical Technology

> <Link to Ligand in BindingDB>
http://www.bindingdb.org/bind/chemsearch/marvin/MolStructure.jsp?monomerid=50116693

> <Link to Ligand-Target Pair in BindingDB>
http://www.bindingdb.org/jsp/dbsearch/PrimarySearch_ki.jsp?energyterm=kJ/mole&tag=pol&polymerid=5809&target=ALK+tyrosine+kinase+receptor&column=ki&startPg=0&Increment=50&submit=Search

> <Link to Ligand-Target Pair in BindingDB>
http://www.bindingdb.org/jsp/dbsearch/PrimarySearch_ki.jsp?energyterm=kJ/mole&tag=r21&monomerid=50116693&enzyme=ALK+tyrosine+kinase+receptor&column=ki&startPg=0&Increment=50&submit=Search

> <Ligand HET ID in PDB>


> <PDB ID(s) for Ligand-Target Complex>


> <PubChem CID>
122186946

> <PubChem SID>
319494341

> <ChEBI ID of Ligand>


> <ChEMBL ID of Ligand>
CHEMBL3608531

> <DrugBank ID of Ligand>


> <IUPHAR_GRAC ID of Ligand>


> <KEGG ID of Ligand>


> <ZINC ID of Ligand>


> <Number of Protein Chains in Target (>1 implies a multichain complex)>
1

> <BindingDB Target Chain Sequence>
MGAIGLLWLLPLLLSTAAVGSGMGTGQRAGSPAAGPPLQPREPLSYSRLQRKSLAVDFVVPSLFRVYARDLLLPPSSSELKAGRPEARGSLALDCAPLLRLLGPAPGVSWTAGSPAPAEARTLSRVLKGGSVRKLRRAKQLVLELGEEAILEGCVGPPGEAAVGLLQFNLSELFSWWIRQGEGRLRIRLMPEKKASEVGREGRLSAAIRASQPRLLFQIFGTGHSSLESPTNMPSPSPDYFTWNLTWIMKDSFPFLSHRSRYGLECSFDFPCELEYSPPLHDLRNQSWSWRRIPSEEASQMDLLDGPGAERSKEMPRGSFLLLNTSADSKHTILSPWMRSSSEHCTLAVSVHRHLQPSGRYIAQLLPHNEAAREILLMPTPGKHGWTVLQGRIGRPDNPFRVALEYISSGNRSLSAVDFFALKNCSEGTSPGSKMALQSSFTCWNGTVLQLGQACDFHQDCAQGEDESQMCRKLPVGFYCNFEDGFCGWTQGTLSPHTPQWQVRTLKDARFQDHQDHALLLSTTDVPASESATVTSATFPAPIKSSPCELRMSWLIRGVLRGNVSLVLVENKTGKEQGRMVWHVAAYEGLSLWQWMVLPLLDVSDRFWLQMVAWWGQGSRAIVAFDNISISLDCYLTISGEDKILQNTAPKSRNLFERNPNKELKPGENSPRQTPIFDPTVHWLFTTCGASGPHGPTQAQCNNAYQNSNLSVEVGSEGPLKGIQIWKVPATDTYSISGYGAAGGKGGKNTMMRSHGVSVLGIFNLEKDDMLYILVGQQGEDACPSTNQLIQKVCIGENNVIEEEIRVNRSVHEWAGGGGGGGGATYVFKMKDGVPVPLIIAAGGGGRAYGAKTDTFHPERLENNSSVLGLNGNSGAAGGGGGWNDNTSLLWAGKSLQEGATGGHSCPQAMKKWGWETRGGFGGGGGGCSSGGGGGGYIGGNAASNNDPEMDGEDGVSFISPLGILYTPALKVMEGHGEVNIKHYLNCSHCEVDECHMDPESHKVICFCDHGTVLAEDGVSCIVSPTPEPHLPLSLILSVVTSALVAALVLAFSGIMIVYRRKHQELQAMQMELQSPEYKLSKLRTSTIMTDYNPNYCFAGKTSSISDLKEVPRKNITLIRGLGHGAFGEVYEGQVSGMPNDPSPLQVAVKTLPEVCSEQDELDFLMEALIISKFNHQNIVRCIGVSLQSLPRFILLELMAGGDLKSFLRETRPRPSQPSSLAMLDLLHVARDIACGCQYLEENHFIHRDIAARNCLLTCPGPGRVAKIGDFGMARDIYRASYYRKGGCAMLPVKWMPPEAFMEGIFTSKTDTWSFGVLLWEIFSLGYMPYPSKSNQEVLEFVTSGGRMDPPKNCPGPVYRIMTQCWQHQPEDRPNFAIILERIEYCTQDPDVINTALPIEYGPLVEEEEKVPVRPKDPEGVPPLLVSQQAKREEERSPAAPPPLPTTSSGKAAKKPTAAEISVRVPRGPAVEGGHVNMAFSQSNPPSELHKVHGSRNKPTSLWNPTYGSWFTEKPTKKNNPIAKKEPHDRGNLGLEGSCTVPPNVATGRLPGASLLLEPSSLTANMKEVPLFRLRHFPCGNVNYGYQQQGLPLEAATAPGAGHYEDTILKSKNSMNQPGP

> <PDB ID(s) of Target Chain>
2XB7,2XBA,3AOX,5FTO,5FTQ,6E0R,6EBW,6EDL,6MX8

> <UniProt (SwissProt) Recommended Name of Target Chain>
ALK tyrosine kinase receptor

> <UniProt (SwissProt) Entry Name of Target Chain>
ALK_HUMAN

> <UniProt (SwissProt) Primary ID of Target Chain>
Q9UM73

> <UniProt (SwissProt) Secondary ID(s) of Target Chain>
Q4ZFX9,Q53QQ6,Q53RZ4,Q59FI3,Q9Y4K6

> <UniProt (SwissProt) Alternative ID(s) of Target Chain>


> <UniProt (TrEMBL) Submitted Name of Target Chain>


> <UniProt (TrEMBL) Entry Name of Target Chain>


> <UniProt (TrEMBL) Primary ID of Target Chain>


> <UniProt (TrEMBL) Secondary ID(s) of Target Chain>


> <UniProt (TrEMBL) Alternative ID(s) of Target Chain>


$$$$

  SciTegic04201609482D

 38 41  0  0  0  0            999 V2000
   -4.1157    6.0164    0.0000 C   0  0
   -5.4175    5.2712    0.0000 C   0  0
   -5.4230    3.7712    0.0000 N   0  0
   -4.1268    3.0163    0.0000 C   0  0
   -2.8250    3.7616    0.0000 N   0  0
   -2.8195    5.2616    0.0000 C   0  0
   -4.1113    7.2164    0.0000 Cl  0  0
   -4.1292    1.5155    0.0000 N   0  0
   -1.5154    6.0046    0.0000 N   0  0
   -0.2195    5.2476    0.0000 C   0  0
   -0.2301    3.7475    0.0000 C   0  0
    1.0635    2.9883    0.0000 C   0  0
    2.3679    3.7290    0.0000 C   0  0
    2.3786    5.2290    0.0000 C   0  0
    1.0849    5.9882    0.0000 C   0  0
    1.0957    7.4890    0.0000 S   0  0
    2.4003    8.2309    0.0000 C   0  0
    2.4089    9.4309    0.0000 C   0  0
    3.4354    7.6238    0.0000 C   0  0
    1.1037    8.6890    0.0000 O   0  0
    0.0606    8.0961    0.0000 O   0  0
   -5.4292    0.7664    0.0000 C   0  0
   -5.4340   -0.7582    0.0000 C   0  0
   -6.7796   -1.5163    0.0000 C   0  0
   -6.7699    1.5330    0.0000 C   0  0
   -9.0125   -1.6362    0.0000 C   0  0
  -10.5001   -1.3956    0.0000 C   0  0
  -11.2035    0.0224    0.0000 C   0  0
   -8.2655   -0.7492    0.0000 C   0  0
   -8.2607    0.7754    0.0000 C   0  0
   -9.0382    1.7036    0.0000 C   0  0
  -10.5094    1.4178    0.0000 N   0  0
   -4.1388   -1.5155    0.0000 O   0  0
   -4.1445   -2.7155    0.0000 C   0  0
  -11.4068    2.6226    0.0000 C   0  0
  -12.8976    2.4492    0.0000 C   0  0
  -10.9312    3.7243    0.0000 O   0  0
  -13.6142    3.4117    0.0000 O   0  0
  1  2  2  0
  2  3  1  0
  3  4  2  0
  4  5  1  0
  5  6  2  0
  6  1  1  0
  1  7  1  0
  4  8  1  0
  6  9  1  0
  9 10  1  0
 10 11  2  0
 11 12  1  0
 12 13  2  0
 13 14  1  0
 14 15  2  0
 15 10  1  0
 15 16  1  0
 16 17  1  0
 17 18  1  0
 17 19  1  0
 16 20  2  0
 16 21  2  0
  8 22  1  0
 22 23  2  0
 23 24  1  0
 24 29  2  0
 30 25  2  0
 25 22  1  0
 26 27  1  0
 27 28  1  0
 26 29  1  0
 30 31  1  0
 31 32  1  0
 32 28  1  0
 29 30  1  0
 23 33  1  0
 33 34  1  0
 32 35  1  0
 35 36  1  0
 35 37  2  0
 36 38  1  0
M  END
> <From>
www.bindingDB.org

> <BindingDB Reactant_set_id>
50405197

> <Ligand InChI>
InChI=1S/C26H30ClN5O5S/c1-16(2)38(35,36)23-9-5-4-8-20(23)29-25-19(27)13-28-26(31-25)30-21-11-18-14-32(24(34)15-33)10-6-7-17(18)12-22(21)37-3/h4-5,8-9,11-13,16,33H,6-7,10,14-15H2,1-3H3,(H2,28,29,30,31)

> <Ligand InChI Key>
XYPDMOWNWKTDJZ-UHFFFAOYSA-N

> <BindingDB MonomerID>
50116694

> <BindingDB Ligand Name>
CHEMBL3608532::US10053458, 60

> <Target Name Assigned by Curator or DataSource>
ALK tyrosine kinase receptor

> <Target Source Organism According to Curator or DataSource>
Homo sapiens

> <Ki (nM)>


> <IC50 (nM)>
 34000

> <Kd (nM)>


> <EC50 (nM)>


> <kon (M-1-s-1)>


> <koff (s-1)>


> <pH>


> <Temp C>


> <Curation/DataSource>
ChEMBL

> <Article DOI>
10.1016/j.bmcl.2015.07.004

> <PMID>
26235945

> <PubChem AID>


> <Patent Number>


> <Authors>
Kang, GA; Lee, M; Song, D; Lee, HK; Ahn, S; Park, CH; Lee, CO; Yun, CS; Jung, H; Kim, P; Ha, JD; Cho, SY; Kim, HR; Hwang, JY

> <Institution>
Korea Research Institute of Chemical Technology

> <Link to Ligand in BindingDB>
http://www.bindingdb.org/bind/chemsearch/marvin/MolStructure.jsp?monomerid=50116694

> <Link to Ligand-Target Pair in BindingDB>
http://www.bindingdb.org/jsp/dbsearch/PrimarySearch_ki.jsp?energyterm=kJ/mole&tag=pol&polymerid=5809&target=ALK+tyrosine+kinase+receptor&column=ki&startPg=0&Increment=50&submit=Search

> <Link to Ligand-Target Pair in BindingDB>
http://www.bindingdb.org/jsp/dbsearch/PrimarySearch_ki.jsp?energyterm=kJ/mole&tag=r21&monomerid=50116694&enzyme=ALK+tyrosine+kinase+receptor&column=ki&startPg=0&Increment=50&submit=Search

> <Ligand HET ID in PDB>


> <PDB ID(s) for Ligand-Target Complex>


> <PubChem CID>
122186947

> <PubChem SID>
319494342

> <ChEBI ID of Ligand>


> <ChEMBL ID of Ligand>
CHEMBL3608532

> <DrugBank ID of Ligand>


> <IUPHAR_GRAC ID of Ligand>


> <KEGG ID of Ligand>


> <ZINC ID of Ligand>


> <Number of Protein Chains in Target (>1 implies a multichain complex)>
1

> <BindingDB Target Chain Sequence>
MGAIGLLWLLPLLLSTAAVGSGMGTGQRAGSPAAGPPLQPREPLSYSRLQRKSLAVDFVVPSLFRVYARDLLLPPSSSELKAGRPEARGSLALDCAPLLRLLGPAPGVSWTAGSPAPAEARTLSRVLKGGSVRKLRRAKQLVLELGEEAILEGCVGPPGEAAVGLLQFNLSELFSWWIRQGEGRLRIRLMPEKKASEVGREGRLSAAIRASQPRLLFQIFGTGHSSLESPTNMPSPSPDYFTWNLTWIMKDSFPFLSHRSRYGLECSFDFPCELEYSPPLHDLRNQSWSWRRIPSEEASQMDLLDGPGAERSKEMPRGSFLLLNTSADSKHTILSPWMRSSSEHCTLAVSVHRHLQPSGRYIAQLLPHNEAAREILLMPTPGKHGWTVLQGRIGRPDNPFRVALEYISSGNRSLSAVDFFALKNCSEGTSPGSKMALQSSFTCWNGTVLQLGQACDFHQDCAQGEDESQMCRKLPVGFYCNFEDGFCGWTQGTLSPHTPQWQVRTLKDARFQDHQDHALLLSTTDVPASESATVTSATFPAPIKSSPCELRMSWLIRGVLRGNVSLVLVENKTGKEQGRMVWHVAAYEGLSLWQWMVLPLLDVSDRFWLQMVAWWGQGSRAIVAFDNISISLDCYLTISGEDKILQNTAPKSRNLFERNPNKELKPGENSPRQTPIFDPTVHWLFTTCGASGPHGPTQAQCNNAYQNSNLSVEVGSEGPLKGIQIWKVPATDTYSISGYGAAGGKGGKNTMMRSHGVSVLGIFNLEKDDMLYILVGQQGEDACPSTNQLIQKVCIGENNVIEEEIRVNRSVHEWAGGGGGGGGATYVFKMKDGVPVPLIIAAGGGGRAYGAKTDTFHPERLENNSSVLGLNGNSGAAGGGGGWNDNTSLLWAGKSLQEGATGGHSCPQAMKKWGWETRGGFGGGGGGCSSGGGGGGYIGGNAASNNDPEMDGEDGVSFISPLGILYTPALKVMEGHGEVNIKHYLNCSHCEVDECHMDPESHKVICFCDHGTVLAEDGVSCIVSPTPEPHLPLSLILSVVTSALVAALVLAFSGIMIVYRRKHQELQAMQMELQSPEYKLSKLRTSTIMTDYNPNYCFAGKTSSISDLKEVPRKNITLIRGLGHGAFGEVYEGQVSGMPNDPSPLQVAVKTLPEVCSEQDELDFLMEALIISKFNHQNIVRCIGVSLQSLPRFILLELMAGGDLKSFLRETRPRPSQPSSLAMLDLLHVARDIACGCQYLEENHFIHRDIAARNCLLTCPGPGRVAKIGDFGMARDIYRASYYRKGGCAMLPVKWMPPEAFMEGIFTSKTDTWSFGVLLWEIFSLGYMPYPSKSNQEVLEFVTSGGRMDPPKNCPGPVYRIMTQCWQHQPEDRPNFAIILERIEYCTQDPDVINTALPIEYGPLVEEEEKVPVRPKDPEGVPPLLVSQQAKREEERSPAAPPPLPTTSSGKAAKKPTAAEISVRVPRGPAVEGGHVNMAFSQSNPPSELHKVHGSRNKPTSLWNPTYGSWFTEKPTKKNNPIAKKEPHDRGNLGLEGSCTVPPNVATGRLPGASLLLEPSSLTANMKEVPLFRLRHFPCGNVNYGYQQQGLPLEAATAPGAGHYEDTILKSKNSMNQPGP

> <PDB ID(s) of Target Chain>
2XB7,2XBA,3AOX,5FTO,5FTQ,6E0R,6EBW,6EDL,6MX8

> <UniProt (SwissProt) Recommended Name of Target Chain>
ALK tyrosine kinase receptor

> <UniProt (SwissProt) Entry Name of Target Chain>
ALK_HUMAN

> <UniProt (SwissProt) Primary ID of Target Chain>
Q9UM73

> <UniProt (SwissProt) Secondary ID(s) of Target Chain>
Q4ZFX9,Q53QQ6,Q53RZ4,Q59FI3,Q9Y4K6

> <UniProt (SwissProt) Alternative ID(s) of Target Chain>


> <UniProt (TrEMBL) Submitted Name of Target Chain>


> <UniProt (TrEMBL) Entry Name of Target Chain>


> <UniProt (TrEMBL) Primary ID of Target Chain>


> <UniProt (TrEMBL) Secondary ID(s) of Target Chain>


> <UniProt (TrEMBL) Alternative ID(s) of Target Chain>


$$$$

  SciTegic04201609482D

 38 41  0  0  0  0            999 V2000
   -4.1157    6.0164    0.0000 C   0  0
   -5.4175    5.2712    0.0000 C   0  0
   -5.4230    3.7712    0.0000 N   0  0
   -4.1268    3.0163    0.0000 C   0  0
   -2.8250    3.7616    0.0000 N   0  0
   -2.8195    5.2616    0.0000 C   0  0
   -4.1113    7.2164    0.0000 Cl  0  0
   -4.1292    1.5155    0.0000 N   0  0
   -1.5154    6.0046    0.0000 N   0  0
   -0.2195    5.2476    0.0000 C   0  0
   -0.2301    3.7475    0.0000 C   0  0
    1.0635    2.9883    0.0000 C   0  0
    2.3679    3.7290    0.0000 C   0  0
    2.3786    5.2290    0.0000 C   0  0
    1.0849    5.9882    0.0000 C   0  0
    1.0957    7.4890    0.0000 S   0  0
    2.4003    8.2309    0.0000 C   0  0
    2.4089    9.4309    0.0000 C   0  0
    3.4354    7.6238    0.0000 C   0  0
    1.1037    8.6890    0.0000 O   0  0
    0.0606    8.0961    0.0000 O   0  0
   -2.8315    0.7623    0.0000 C   0  0
   -2.8315   -0.7623    0.0000 C   0  0
   -1.4884   -1.5247    0.0000 C   0  0
   -1.4884    1.5247    0.0000 C   0  0
    0.7442   -1.6517    0.0000 C   0  0
    2.2325   -1.4158    0.0000 C   0  0
    2.9404    0.0000    0.0000 N   0  0
    0.0000   -0.7623    0.0000 C   0  0
    0.0000    0.7623    0.0000 C   0  0
    0.7805    1.6880    0.0000 C   0  0
    2.2507    1.3976    0.0000 C   0  0
   -4.1292   -1.5155    0.0000 O   0  0
   -4.1273   -2.7155    0.0000 C   0  0
    4.4422    0.0064    0.0000 C   0  0
    5.1878    1.3090    0.0000 C   0  0
    5.0464   -1.0304    0.0000 O   0  0
    6.3878    1.3142    0.0000 O   0  0
  1  2  2  0
  2  3  1  0
  3  4  2  0
  4  5  1  0
  5  6  2  0
  6  1  1  0
  1  7  1  0
  4  8  1  0
  6  9  1  0
  9 10  1  0
 10 11  2  0
 11 12  1  0
 12 13  2  0
 13 14  1  0
 14 15  2  0
 15 10  1  0
 15 16  1  0
 16 17  1  0
 17 18  1  0
 17 19  1  0
 16 20  2  0
 16 21  2  0
  8 22  1  0
 22 23  2  0
 23 24  1  0
 24 29  2  0
 30 25  2  0
 25 22  1  0
 26 27  1  0
 27 28  1  0
 26 29  1  0
 30 31  1  0
 31 32  1  0
 32 28  1  0
 29 30  1  0
 23 33  1  0
 33 34  1  0
 28 35  1  0
 35 36  1  0
 35 37  2  0
 36 38  1  0
M  END
> <From>
www.bindingDB.org

> <BindingDB Reactant_set_id>
50405198

> <Ligand InChI>
InChI=1S/C26H30ClN5O5S/c1-16(2)38(35,36)23-7-5-4-6-20(23)29-25-19(27)14-28-26(31-25)30-21-12-17-8-10-32(24(34)15-33)11-9-18(17)13-22(21)37-3/h4-7,12-14,16,33H,8-11,15H2,1-3H3,(H2,28,29,30,31)

> <Ligand InChI Key>
GYUJZBRIDJQKEL-UHFFFAOYSA-N

> <BindingDB MonomerID>
50116695

> <BindingDB Ligand Name>
CHEMBL3608533::US10053458, 68

> <Target Name Assigned by Curator or DataSource>
ALK tyrosine kinase receptor

> <Target Source Organism According to Curator or DataSource>
Homo sapiens

> <Ki (nM)>


> <IC50 (nM)>
 10000

> <Kd (nM)>


> <EC50 (nM)>


> <kon (M-1-s-1)>


> <koff (s-1)>


> <pH>


> <Temp C>


> <Curation/DataSource>
ChEMBL

> <Article DOI>
10.1016/j.bmcl.2015.07.004

> <PMID>
26235945

> <PubChem AID>


> <Patent Number>


> <Authors>
Kang, GA; Lee, M; Song, D; Lee, HK; Ahn, S; Park, CH; Lee, CO; Yun, CS; Jung, H; Kim, P; Ha, JD; Cho, SY; Kim, HR; Hwang, JY

> <Institution>
Korea Research Institute of Chemical Technology

> <Link to Ligand in BindingDB>
http://www.bindingdb.org/bind/chemsearch/marvin/MolStructure.jsp?monomerid=50116695

> <Link to Ligand-Target Pair in BindingDB>
http://www.bindingdb.org/jsp/dbsearch/PrimarySearch_ki.jsp?energyterm=kJ/mole&tag=pol&polymerid=5809&target=ALK+tyrosine+kinase+receptor&column=ki&startPg=0&Increment=50&submit=Search

> <Link to Ligand-Target Pair in BindingDB>
http://www.bindingdb.org/jsp/dbsearch/PrimarySearch_ki.jsp?energyterm=kJ/mole&tag=r21&monomerid=50116695&enzyme=ALK+tyrosine+kinase+receptor&column=ki&startPg=0&Increment=50&submit=Search

> <Ligand HET ID in PDB>


> <PDB ID(s) for Ligand-Target Complex>


> <PubChem CID>
122186948

> <PubChem SID>
319494343

> <ChEBI ID of Ligand>


> <ChEMBL ID of Ligand>
CHEMBL3608533

> <DrugBank ID of Ligand>


> <IUPHAR_GRAC ID of Ligand>


> <KEGG ID of Ligand>


> <ZINC ID of Ligand>


> <Number of Protein Chains in Target (>1 implies a multichain complex)>
1

> <BindingDB Target Chain Sequence>
MGAIGLLWLLPLLLSTAAVGSGMGTGQRAGSPAAGPPLQPREPLSYSRLQRKSLAVDFVVPSLFRVYARDLLLPPSSSELKAGRPEARGSLALDCAPLLRLLGPAPGVSWTAGSPAPAEARTLSRVLKGGSVRKLRRAKQLVLELGEEAILEGCVGPPGEAAVGLLQFNLSELFSWWIRQGEGRLRIRLMPEKKASEVGREGRLSAAIRASQPRLLFQIFGTGHSSLESPTNMPSPSPDYFTWNLTWIMKDSFPFLSHRSRYGLECSFDFPCELEYSPPLHDLRNQSWSWRRIPSEEASQMDLLDGPGAERSKEMPRGSFLLLNTSADSKHTILSPWMRSSSEHCTLAVSVHRHLQPSGRYIAQLLPHNEAAREILLMPTPGKHGWTVLQGRIGRPDNPFRVALEYISSGNRSLSAVDFFALKNCSEGTSPGSKMALQSSFTCWNGTVLQLGQACDFHQDCAQGEDESQMCRKLPVGFYCNFEDGFCGWTQGTLSPHTPQWQVRTLKDARFQDHQDHALLLSTTDVPASESATVTSATFPAPIKSSPCELRMSWLIRGVLRGNVSLVLVENKTGKEQGRMVWHVAAYEGLSLWQWMVLPLLDVSDRFWLQMVAWWGQGSRAIVAFDNISISLDCYLTISGEDKILQNTAPKSRNLFERNPNKELKPGENSPRQTPIFDPTVHWLFTTCGASGPHGPTQAQCNNAYQNSNLSVEVGSEGPLKGIQIWKVPATDTYSISGYGAAGGKGGKNTMMRSHGVSVLGIFNLEKDDMLYILVGQQGEDACPSTNQLIQKVCIGENNVIEEEIRVNRSVHEWAGGGGGGGGATYVFKMKDGVPVPLIIAAGGGGRAYGAKTDTFHPERLENNSSVLGLNGNSGAAGGGGGWNDNTSLLWAGKSLQEGATGGHSCPQAMKKWGWETRGGFGGGGGGCSSGGGGGGYIGGNAASNNDPEMDGEDGVSFISPLGILYTPALKVMEGHGEVNIKHYLNCSHCEVDECHMDPESHKVICFCDHGTVLAEDGVSCIVSPTPEPHLPLSLILSVVTSALVAALVLAFSGIMIVYRRKHQELQAMQMELQSPEYKLSKLRTSTIMTDYNPNYCFAGKTSSISDLKEVPRKNITLIRGLGHGAFGEVYEGQVSGMPNDPSPLQVAVKTLPEVCSEQDELDFLMEALIISKFNHQNIVRCIGVSLQSLPRFILLELMAGGDLKSFLRETRPRPSQPSSLAMLDLLHVARDIACGCQYLEENHFIHRDIAARNCLLTCPGPGRVAKIGDFGMARDIYRASYYRKGGCAMLPVKWMPPEAFMEGIFTSKTDTWSFGVLLWEIFSLGYMPYPSKSNQEVLEFVTSGGRMDPPKNCPGPVYRIMTQCWQHQPEDRPNFAIILERIEYCTQDPDVINTALPIEYGPLVEEEEKVPVRPKDPEGVPPLLVSQQAKREEERSPAAPPPLPTTSSGKAAKKPTAAEISVRVPRGPAVEGGHVNMAFSQSNPPSELHKVHGSRNKPTSLWNPTYGSWFTEKPTKKNNPIAKKEPHDRGNLGLEGSCTVPPNVATGRLPGASLLLEPSSLTANMKEVPLFRLRHFPCGNVNYGYQQQGLPLEAATAPGAGHYEDTILKSKNSMNQPGP

> <PDB ID(s) of Target Chain>
2XB7,2XBA,3AOX,5FTO,5FTQ,6E0R,6EBW,6EDL,6MX8

> <UniProt (SwissProt) Recommended Name of Target Chain>
ALK tyrosine kinase receptor

> <UniProt (SwissProt) Entry Name of Target Chain>
ALK_HUMAN

> <UniProt (SwissProt) Primary ID of Target Chain>
Q9UM73

> <UniProt (SwissProt) Secondary ID(s) of Target Chain>
Q4ZFX9,Q53QQ6,Q53RZ4,Q59FI3,Q9Y4K6

> <UniProt (SwissProt) Alternative ID(s) of Target Chain>


> <UniProt (TrEMBL) Submitted Name of Target Chain>


> <UniProt (TrEMBL) Entry Name of Target Chain>


> <UniProt (TrEMBL) Primary ID of Target Chain>


> <UniProt (TrEMBL) Secondary ID(s) of Target Chain>


> <UniProt (TrEMBL) Alternative ID(s) of Target Chain>


$$$$

  SciTegic04201609482D

 37 40  0  0  0  0            999 V2000
   -4.1157    6.0164    0.0000 C   0  0
   -5.4175    5.2712    0.0000 C   0  0
   -5.4230    3.7712    0.0000 N   0  0
   -4.1268    3.0163    0.0000 C   0  0
   -2.8250    3.7616    0.0000 N   0  0
   -2.8195    5.2616    0.0000 C   0  0
   -4.1113    7.2164    0.0000 Cl  0  0
   -4.1292    1.5155    0.0000 N   0  0
   -1.5154    6.0046    0.0000 N   0  0
   -0.2195    5.2476    0.0000 C   0  0
   -0.2301    3.7475    0.0000 C   0  0
    1.0635    2.9883    0.0000 C   0  0
    2.3679    3.7290    0.0000 C   0  0
    2.3786    5.2290    0.0000 C   0  0
    1.0849    5.9882    0.0000 C   0  0
    1.0957    7.4890    0.0000 S   0  0
    2.4003    8.2309    0.0000 C   0  0
    2.4089    9.4309    0.0000 C   0  0
    3.4354    7.6238    0.0000 C   0  0
    1.1037    8.6890    0.0000 O   0  0
    0.0606    8.0961    0.0000 O   0  0
   -2.8315    0.7623    0.0000 C   0  0
   -2.8315   -0.7623    0.0000 C   0  0
   -1.4884   -1.5247    0.0000 C   0  0
   -1.4884    1.5247    0.0000 C   0  0
    0.7442   -1.6517    0.0000 C   0  0
    2.2325   -1.4158    0.0000 N   0  0
    2.9404    0.0000    0.0000 C   0  0
    0.0000   -0.7623    0.0000 C   0  0
    0.0000    0.7623    0.0000 C   0  0
    0.7805    1.6880    0.0000 C   0  0
    2.2507    1.3976    0.0000 C   0  0
   -4.1292   -1.5155    0.0000 O   0  0
   -4.1273   -2.7155    0.0000 C   0  0
    3.1043   -2.6385    0.0000 C   0  0
    4.5984   -2.4964    0.0000 C   0  0
    5.2947   -3.4737    0.0000 O   0  0
  1  2  2  0
  2  3  1  0
  3  4  2  0
  4  5  1  0
  5  6  2  0
  6  1  1  0
  1  7  1  0
  4  8  1  0
  6  9  1  0
  9 10  1  0
 10 11  2  0
 11 12  1  0
 12 13  2  0
 13 14  1  0
 14 15  2  0
 15 10  1  0
 15 16  1  0
 16 17  1  0
 17 18  1  0
 17 19  1  0
 16 20  2  0
 16 21  2  0
  8 22  1  0
 22 23  2  0
 23 24  1  0
 24 29  2  0
 30 25  2  0
 25 22  1  0
 26 27  1  0
 27 28  1  0
 26 29  1  0
 30 31  1  0
 31 32  1  0
 32 28  1  0
 29 30  1  0
 23 33  1  0
 33 34  1  0
 27 35  1  0
 35 36  1  0
 36 37  1  0
M  END
> <From>
www.bindingDB.org

> <BindingDB Reactant_set_id>
50405199

> <Ligand InChI>
InChI=1S/C26H32ClN5O4S/c1-17(2)37(34,35)24-9-5-4-8-21(24)29-25-20(27)15-28-26(31-25)30-22-13-18-7-6-10-32(11-12-33)16-19(18)14-23(22)36-3/h4-5,8-9,13-15,17,33H,6-7,10-12,16H2,1-3H3,(H2,28,29,30,31)

> <Ligand InChI Key>
XJWNNWKYALKNDK-UHFFFAOYSA-N

> <BindingDB MonomerID>
50116696

> <BindingDB Ligand Name>
CHEMBL3608534::US10053458, 52

> <Target Name Assigned by Curator or DataSource>
ALK tyrosine kinase receptor

> <Target Source Organism According to Curator or DataSource>
Homo sapiens

> <Ki (nM)>


> <IC50 (nM)>
 700

> <Kd (nM)>


> <EC50 (nM)>


> <kon (M-1-s-1)>


> <koff (s-1)>


> <pH>


> <Temp C>


> <Curation/DataSource>
ChEMBL

> <Article DOI>
10.1016/j.bmcl.2015.07.004

> <PMID>
26235945

> <PubChem AID>


> <Patent Number>


> <Authors>
Kang, GA; Lee, M; Song, D; Lee, HK; Ahn, S; Park, CH; Lee, CO; Yun, CS; Jung, H; Kim, P; Ha, JD; Cho, SY; Kim, HR; Hwang, JY

> <Institution>
Korea Research Institute of Chemical Technology

> <Link to Ligand in BindingDB>
http://www.bindingdb.org/bind/chemsearch/marvin/MolStructure.jsp?monomerid=50116696

> <Link to Ligand-Target Pair in BindingDB>
http://www.bindingdb.org/jsp/dbsearch/PrimarySearch_ki.jsp?energyterm=kJ/mole&tag=pol&polymerid=5809&target=ALK+tyrosine+kinase+receptor&column=ki&startPg=0&Increment=50&submit=Search

> <Link to Ligand-Target Pair in BindingDB>
http://www.bindingdb.org/jsp/dbsearch/PrimarySearch_ki.jsp?energyterm=kJ/mole&tag=r21&monomerid=50116696&enzyme=ALK+tyrosine+kinase+receptor&column=ki&startPg=0&Increment=50&submit=Search

> <Ligand HET ID in PDB>


> <PDB ID(s) for Ligand-Target Complex>


> <PubChem CID>
122186949

> <PubChem SID>
319494344

> <ChEBI ID of Ligand>


> <ChEMBL ID of Ligand>
CHEMBL3608534

> <DrugBank ID of Ligand>


> <IUPHAR_GRAC ID of Ligand>


> <KEGG ID of Ligand>


> <ZINC ID of Ligand>


> <Number of Protein Chains in Target (>1 implies a multichain complex)>
1

> <BindingDB Target Chain Sequence>
MGAIGLLWLLPLLLSTAAVGSGMGTGQRAGSPAAGPPLQPREPLSYSRLQRKSLAVDFVVPSLFRVYARDLLLPPSSSELKAGRPEARGSLALDCAPLLRLLGPAPGVSWTAGSPAPAEARTLSRVLKGGSVRKLRRAKQLVLELGEEAILEGCVGPPGEAAVGLLQFNLSELFSWWIRQGEGRLRIRLMPEKKASEVGREGRLSAAIRASQPRLLFQIFGTGHSSLESPTNMPSPSPDYFTWNLTWIMKDSFPFLSHRSRYGLECSFDFPCELEYSPPLHDLRNQSWSWRRIPSEEASQMDLLDGPGAERSKEMPRGSFLLLNTSADSKHTILSPWMRSSSEHCTLAVSVHRHLQPSGRYIAQLLPHNEAAREILLMPTPGKHGWTVLQGRIGRPDNPFRVALEYISSGNRSLSAVDFFALKNCSEGTSPGSKMALQSSFTCWNGTVLQLGQACDFHQDCAQGEDESQMCRKLPVGFYCNFEDGFCGWTQGTLSPHTPQWQVRTLKDARFQDHQDHALLLSTTDVPASESATVTSATFPAPIKSSPCELRMSWLIRGVLRGNVSLVLVENKTGKEQGRMVWHVAAYEGLSLWQWMVLPLLDVSDRFWLQMVAWWGQGSRAIVAFDNISISLDCYLTISGEDKILQNTAPKSRNLFERNPNKELKPGENSPRQTPIFDPTVHWLFTTCGASGPHGPTQAQCNNAYQNSNLSVEVGSEGPLKGIQIWKVPATDTYSISGYGAAGGKGGKNTMMRSHGVSVLGIFNLEKDDMLYILVGQQGEDACPSTNQLIQKVCIGENNVIEEEIRVNRSVHEWAGGGGGGGGATYVFKMKDGVPVPLIIAAGGGGRAYGAKTDTFHPERLENNSSVLGLNGNSGAAGGGGGWNDNTSLLWAGKSLQEGATGGHSCPQAMKKWGWETRGGFGGGGGGCSSGGGGGGYIGGNAASNNDPEMDGEDGVSFISPLGILYTPALKVMEGHGEVNIKHYLNCSHCEVDECHMDPESHKVICFCDHGTVLAEDGVSCIVSPTPEPHLPLSLILSVVTSALVAALVLAFSGIMIVYRRKHQELQAMQMELQSPEYKLSKLRTSTIMTDYNPNYCFAGKTSSISDLKEVPRKNITLIRGLGHGAFGEVYEGQVSGMPNDPSPLQVAVKTLPEVCSEQDELDFLMEALIISKFNHQNIVRCIGVSLQSLPRFILLELMAGGDLKSFLRETRPRPSQPSSLAMLDLLHVARDIACGCQYLEENHFIHRDIAARNCLLTCPGPGRVAKIGDFGMARDIYRASYYRKGGCAMLPVKWMPPEAFMEGIFTSKTDTWSFGVLLWEIFSLGYMPYPSKSNQEVLEFVTSGGRMDPPKNCPGPVYRIMTQCWQHQPEDRPNFAIILERIEYCTQDPDVINTALPIEYGPLVEEEEKVPVRPKDPEGVPPLLVSQQAKREEERSPAAPPPLPTTSSGKAAKKPTAAEISVRVPRGPAVEGGHVNMAFSQSNPPSELHKVHGSRNKPTSLWNPTYGSWFTEKPTKKNNPIAKKEPHDRGNLGLEGSCTVPPNVATGRLPGASLLLEPSSLTANMKEVPLFRLRHFPCGNVNYGYQQQGLPLEAATAPGAGHYEDTILKSKNSMNQPGP

> <PDB ID(s) of Target Chain>
2XB7,2XBA,3AOX,5FTO,5FTQ,6E0R,6EBW,6EDL,6MX8

> <UniProt (SwissProt) Recommended Name of Target Chain>
ALK tyrosine kinase receptor

> <UniProt (SwissProt) Entry Name of Target Chain>
ALK_HUMAN

> <UniProt (SwissProt) Primary ID of Target Chain>
Q9UM73

> <UniProt (SwissProt) Secondary ID(s) of Target Chain>
Q4ZFX9,Q53QQ6,Q53RZ4,Q59FI3,Q9Y4K6

> <UniProt (SwissProt) Alternative ID(s) of Target Chain>


> <UniProt (TrEMBL) Submitted Name of Target Chain>


> <UniProt (TrEMBL) Entry Name of Target Chain>


> <UniProt (TrEMBL) Primary ID of Target Chain>


> <UniProt (TrEMBL) Secondary ID(s) of Target Chain>


> <UniProt (TrEMBL) Alternative ID(s) of Target Chain>


$$$$

  SciTegic04201609482D

 37 40  0  0  0  0            999 V2000
   -4.1157    6.0164    0.0000 C   0  0
   -5.4175    5.2712    0.0000 C   0  0
   -5.4230    3.7712    0.0000 N   0  0
   -4.1268    3.0163    0.0000 C   0  0
   -2.8250    3.7616    0.0000 N   0  0
   -2.8195    5.2616    0.0000 C   0  0
   -4.1113    7.2164    0.0000 Cl  0  0
   -4.1292    1.5155    0.0000 N   0  0
   -1.5154    6.0046    0.0000 N   0  0
   -0.2195    5.2476    0.0000 C   0  0
   -0.2301    3.7475    0.0000 C   0  0
    1.0635    2.9883    0.0000 C   0  0
    2.3679    3.7290    0.0000 C   0  0
    2.3786    5.2290    0.0000 C   0  0
    1.0849    5.9882    0.0000 C   0  0
    1.0957    7.4890    0.0000 S   0  0
    2.4003    8.2309    0.0000 C   0  0
    2.4089    9.4309    0.0000 C   0  0
    3.4354    7.6238    0.0000 C   0  0
    1.1037    8.6890    0.0000 O   0  0
    0.0606    8.0961    0.0000 O   0  0
   -2.8315    0.7623    0.0000 C   0  0
   -2.8315   -0.7623    0.0000 C   0  0
   -1.4884   -1.5247    0.0000 C   0  0
   -1.4884    1.5247    0.0000 C   0  0
    0.7442   -1.6517    0.0000 C   0  0
    2.2325   -1.4158    0.0000 C   0  0
    2.9404    0.0000    0.0000 C   0  0
    0.0000   -0.7623    0.0000 C   0  0
    0.0000    0.7623    0.0000 C   0  0
    0.7805    1.6880    0.0000 C   0  0
    2.2507    1.3976    0.0000 N   0  0
   -4.1292   -1.5155    0.0000 O   0  0
   -4.1273   -2.7155    0.0000 C   0  0
    3.1520    2.5995    0.0000 C   0  0
    4.6422    2.4214    0.0000 C   0  0
    5.3619    3.3816    0.0000 O   0  0
  1  2  2  0
  2  3  1  0
  3  4  2  0
  4  5  1  0
  5  6  2  0
  6  1  1  0
  1  7  1  0
  4  8  1  0
  6  9  1  0
  9 10  1  0
 10 11  2  0
 11 12  1  0
 12 13  2  0
 13 14  1  0
 14 15  2  0
 15 10  1  0
 15 16  1  0
 16 17  1  0
 17 18  1  0
 17 19  1  0
 16 20  2  0
 16 21  2  0
  8 22  1  0
 22 23  2  0
 23 24  1  0
 24 29  2  0
 30 25  2  0
 25 22  1  0
 26 27  1  0
 27 28  1  0
 26 29  1  0
 30 31  1  0
 31 32  1  0
 32 28  1  0
 29 30  1  0
 23 33  1  0
 33 34  1  0
 32 35  1  0
 35 36  1  0
 36 37  1  0
M  END
> <From>
www.bindingDB.org

> <BindingDB Reactant_set_id>
50405200

> <Ligand InChI>
InChI=1S/C26H32ClN5O4S/c1-17(2)37(34,35)24-9-5-4-8-21(24)29-25-20(27)15-28-26(31-25)30-22-13-19-16-32(11-12-33)10-6-7-18(19)14-23(22)36-3/h4-5,8-9,13-15,17,33H,6-7,10-12,16H2,1-3H3,(H2,28,29,30,31)

> <Ligand InChI Key>
IRMGIUINRNWTRL-UHFFFAOYSA-N

> <BindingDB MonomerID>
50116697

> <BindingDB Ligand Name>
CHEMBL3608535::US10053458, 61

> <Target Name Assigned by Curator or DataSource>
ALK tyrosine kinase receptor

> <Target Source Organism According to Curator or DataSource>
Homo sapiens

> <Ki (nM)>


> <IC50 (nM)>
 35000

> <Kd (nM)>


> <EC50 (nM)>


> <kon (M-1-s-1)>


> <koff (s-1)>


> <pH>


> <Temp C>


> <Curation/DataSource>
ChEMBL

> <Article DOI>
10.1016/j.bmcl.2015.07.004

> <PMID>
26235945

> <PubChem AID>


> <Patent Number>


> <Authors>
Kang, GA; Lee, M; Song, D; Lee, HK; Ahn, S; Park, CH; Lee, CO; Yun, CS; Jung, H; Kim, P; Ha, JD; Cho, SY; Kim, HR; Hwang, JY

> <Institution>
Korea Research Institute of Chemical Technology

> <Link to Ligand in BindingDB>
http://www.bindingdb.org/bind/chemsearch/marvin/MolStructure.jsp?monomerid=50116697

> <Link to Ligand-Target Pair in BindingDB>
http://www.bindingdb.org/jsp/dbsearch/PrimarySearch_ki.jsp?energyterm=kJ/mole&tag=pol&polymerid=5809&target=ALK+tyrosine+kinase+receptor&column=ki&startPg=0&Increment=50&submit=Search

> <Link to Ligand-Target Pair in BindingDB>
http://www.bindingdb.org/jsp/dbsearch/PrimarySearch_ki.jsp?energyterm=kJ/mole&tag=r21&monomerid=50116697&enzyme=ALK+tyrosine+kinase+receptor&column=ki&startPg=0&Increment=50&submit=Search

> <Ligand HET ID in PDB>


> <PDB ID(s) for Ligand-Target Complex>


> <PubChem CID>
122186950

> <PubChem SID>
319494345

> <ChEBI ID of Ligand>


> <ChEMBL ID of Ligand>
CHEMBL3608535

> <DrugBank ID of Ligand>


> <IUPHAR_GRAC ID of Ligand>


> <KEGG ID of Ligand>


> <ZINC ID of Ligand>


> <Number of Protein Chains in Target (>1 implies a multichain complex)>
1

> <BindingDB Target Chain Sequence>
MGAIGLLWLLPLLLSTAAVGSGMGTGQRAGSPAAGPPLQPREPLSYSRLQRKSLAVDFVVPSLFRVYARDLLLPPSSSELKAGRPEARGSLALDCAPLLRLLGPAPGVSWTAGSPAPAEARTLSRVLKGGSVRKLRRAKQLVLELGEEAILEGCVGPPGEAAVGLLQFNLSELFSWWIRQGEGRLRIRLMPEKKASEVGREGRLSAAIRASQPRLLFQIFGTGHSSLESPTNMPSPSPDYFTWNLTWIMKDSFPFLSHRSRYGLECSFDFPCELEYSPPLHDLRNQSWSWRRIPSEEASQMDLLDGPGAERSKEMPRGSFLLLNTSADSKHTILSPWMRSSSEHCTLAVSVHRHLQPSGRYIAQLLPHNEAAREILLMPTPGKHGWTVLQGRIGRPDNPFRVALEYISSGNRSLSAVDFFALKNCSEGTSPGSKMALQSSFTCWNGTVLQLGQACDFHQDCAQGEDESQMCRKLPVGFYCNFEDGFCGWTQGTLSPHTPQWQVRTLKDARFQDHQDHALLLSTTDVPASESATVTSATFPAPIKSSPCELRMSWLIRGVLRGNVSLVLVENKTGKEQGRMVWHVAAYEGLSLWQWMVLPLLDVSDRFWLQMVAWWGQGSRAIVAFDNISISLDCYLTISGEDKILQNTAPKSRNLFERNPNKELKPGENSPRQTPIFDPTVHWLFTTCGASGPHGPTQAQCNNAYQNSNLSVEVGSEGPLKGIQIWKVPATDTYSISGYGAAGGKGGKNTMMRSHGVSVLGIFNLEKDDMLYILVGQQGEDACPSTNQLIQKVCIGENNVIEEEIRVNRSVHEWAGGGGGGGGATYVFKMKDGVPVPLIIAAGGGGRAYGAKTDTFHPERLENNSSVLGLNGNSGAAGGGGGWNDNTSLLWAGKSLQEGATGGHSCPQAMKKWGWETRGGFGGGGGGCSSGGGGGGYIGGNAASNNDPEMDGEDGVSFISPLGILYTPALKVMEGHGEVNIKHYLNCSHCEVDECHMDPESHKVICFCDHGTVLAEDGVSCIVSPTPEPHLPLSLILSVVTSALVAALVLAFSGIMIVYRRKHQELQAMQMELQSPEYKLSKLRTSTIMTDYNPNYCFAGKTSSISDLKEVPRKNITLIRGLGHGAFGEVYEGQVSGMPNDPSPLQVAVKTLPEVCSEQDELDFLMEALIISKFNHQNIVRCIGVSLQSLPRFILLELMAGGDLKSFLRETRPRPSQPSSLAMLDLLHVARDIACGCQYLEENHFIHRDIAARNCLLTCPGPGRVAKIGDFGMARDIYRASYYRKGGCAMLPVKWMPPEAFMEGIFTSKTDTWSFGVLLWEIFSLGYMPYPSKSNQEVLEFVTSGGRMDPPKNCPGPVYRIMTQCWQHQPEDRPNFAIILERIEYCTQDPDVINTALPIEYGPLVEEEEKVPVRPKDPEGVPPLLVSQQAKREEERSPAAPPPLPTTSSGKAAKKPTAAEISVRVPRGPAVEGGHVNMAFSQSNPPSELHKVHGSRNKPTSLWNPTYGSWFTEKPTKKNNPIAKKEPHDRGNLGLEGSCTVPPNVATGRLPGASLLLEPSSLTANMKEVPLFRLRHFPCGNVNYGYQQQGLPLEAATAPGAGHYEDTILKSKNSMNQPGP

> <PDB ID(s) of Target Chain>
2XB7,2XBA,3AOX,5FTO,5FTQ,6E0R,6EBW,6EDL,6MX8

> <UniProt (SwissProt) Recommended Name of Target Chain>
ALK tyrosine kinase receptor

> <UniProt (SwissProt) Entry Name of Target Chain>
ALK_HUMAN

> <UniProt (SwissProt) Primary ID of Target Chain>
Q9UM73

> <UniProt (SwissProt) Secondary ID(s) of Target Chain>
Q4ZFX9,Q53QQ6,Q53RZ4,Q59FI3,Q9Y4K6

> <UniProt (SwissProt) Alternative ID(s) of Target Chain>


> <UniProt (TrEMBL) Submitted Name of Target Chain>


> <UniProt (TrEMBL) Entry Name of Target Chain>


> <UniProt (TrEMBL) Primary ID of Target Chain>


> <UniProt (TrEMBL) Secondary ID(s) of Target Chain>


> <UniProt (TrEMBL) Alternative ID(s) of Target Chain>


$$$$

  SciTegic04201609482D

 37 40  0  0  0  0            999 V2000
   -4.1157    6.0164    0.0000 C   0  0
   -5.4175    5.2712    0.0000 C   0  0
   -5.4230    3.7712    0.0000 N   0  0
   -4.1268    3.0163    0.0000 C   0  0
   -2.8250    3.7616    0.0000 N   0  0
   -2.8195    5.2616    0.0000 C   0  0
   -4.1113    7.2164    0.0000 Cl  0  0
   -4.1292    1.5155    0.0000 N   0  0
   -1.5154    6.0046    0.0000 N   0  0
   -0.2195    5.2476    0.0000 C   0  0
   -0.2301    3.7475    0.0000 C   0  0
    1.0635    2.9883    0.0000 C   0  0
    2.3679    3.7290    0.0000 C   0  0
    2.3786    5.2290    0.0000 C   0  0
    1.0849    5.9882    0.0000 C   0  0
    1.0957    7.4890    0.0000 S   0  0
    2.4003    8.2309    0.0000 C   0  0
    2.4089    9.4309    0.0000 C   0  0
    3.4354    7.6238    0.0000 C   0  0
    1.1037    8.6890    0.0000 O   0  0
    0.0606    8.0961    0.0000 O   0  0
   -2.8315    0.7623    0.0000 C   0  0
   -2.8315   -0.7623    0.0000 C   0  0
   -1.4884   -1.5247    0.0000 C   0  0
   -1.4884    1.5247    0.0000 C   0  0
    0.7442   -1.6517    0.0000 C   0  0
    2.2325   -1.4158    0.0000 C   0  0
    2.9404    0.0000    0.0000 N   0  0
    0.0000   -0.7623    0.0000 C   0  0
    0.0000    0.7623    0.0000 C   0  0
    0.7805    1.6880    0.0000 C   0  0
    2.2507    1.3976    0.0000 C   0  0
   -4.1292   -1.5155    0.0000 O   0  0
   -4.1273   -2.7155    0.0000 C   0  0
    4.4422    0.0064    0.0000 C   0  0
    5.1878    1.3090    0.0000 C   0  0
    6.3878    1.3142    0.0000 O   0  0
  1  2  2  0
  2  3  1  0
  3  4  2  0
  4  5  1  0
  5  6  2  0
  6  1  1  0
  1  7  1  0
  4  8  1  0
  6  9  1  0
  9 10  1  0
 10 11  2  0
 11 12  1  0
 12 13  2  0
 13 14  1  0
 14 15  2  0
 15 10  1  0
 15 16  1  0
 16 17  1  0
 17 18  1  0
 17 19  1  0
 16 20  2  0
 16 21  2  0
  8 22  1  0
 22 23  2  0
 23 24  1  0
 24 29  2  0
 30 25  2  0
 25 22  1  0
 26 27  1  0
 27 28  1  0
 26 29  1  0
 30 31  1  0
 31 32  1  0
 32 28  1  0
 29 30  1  0
 23 33  1  0
 33 34  1  0
 28 35  1  0
 35 36  1  0
 36 37  1  0
M  END
> <From>
www.bindingDB.org

> <BindingDB Reactant_set_id>
50405201

> <Ligand InChI>
InChI=1S/C26H32ClN5O4S/c1-17(2)37(34,35)24-7-5-4-6-21(24)29-25-20(27)16-28-26(31-25)30-22-14-18-8-10-32(12-13-33)11-9-19(18)15-23(22)36-3/h4-7,14-17,33H,8-13H2,1-3H3,(H2,28,29,30,31)

> <Ligand InChI Key>
CADNXFFPEKAFHJ-UHFFFAOYSA-N

> <BindingDB MonomerID>
50116698

> <BindingDB Ligand Name>
CHEMBL3608641::US10053458, 69

> <Target Name Assigned by Curator or DataSource>
ALK tyrosine kinase receptor

> <Target Source Organism According to Curator or DataSource>
Homo sapiens

> <Ki (nM)>


> <IC50 (nM)>
 11000

> <Kd (nM)>


> <EC50 (nM)>


> <kon (M-1-s-1)>


> <koff (s-1)>


> <pH>


> <Temp C>


> <Curation/DataSource>
ChEMBL

> <Article DOI>
10.1016/j.bmcl.2015.07.004

> <PMID>
26235945

> <PubChem AID>


> <Patent Number>


> <Authors>
Kang, GA; Lee, M; Song, D; Lee, HK; Ahn, S; Park, CH; Lee, CO; Yun, CS; Jung, H; Kim, P; Ha, JD; Cho, SY; Kim, HR; Hwang, JY

> <Institution>
Korea Research Institute of Chemical Technology

> <Link to Ligand in BindingDB>
http://www.bindingdb.org/bind/chemsearch/marvin/MolStructure.jsp?monomerid=50116698

> <Link to Ligand-Target Pair in BindingDB>
http://www.bindingdb.org/jsp/dbsearch/PrimarySearch_ki.jsp?energyterm=kJ/mole&tag=pol&polymerid=5809&target=ALK+tyrosine+kinase+receptor&column=ki&startPg=0&Increment=50&submit=Search

> <Link to Ligand-Target Pair in BindingDB>
http://www.bindingdb.org/jsp/dbsearch/PrimarySearch_ki.jsp?energyterm=kJ/mole&tag=r21&monomerid=50116698&enzyme=ALK+tyrosine+kinase+receptor&column=ki&startPg=0&Increment=50&submit=Search

> <Ligand HET ID in PDB>


> <PDB ID(s) for Ligand-Target Complex>


> <PubChem CID>
66830713

> <PubChem SID>
319494346

> <ChEBI ID of Ligand>


> <ChEMBL ID of Ligand>
CHEMBL3608641

> <DrugBank ID of Ligand>


> <IUPHAR_GRAC ID of Ligand>


> <KEGG ID of Ligand>


> <ZINC ID of Ligand>


> <Number of Protein Chains in Target (>1 implies a multichain complex)>
1

> <BindingDB Target Chain Sequence>
MGAIGLLWLLPLLLSTAAVGSGMGTGQRAGSPAAGPPLQPREPLSYSRLQRKSLAVDFVVPSLFRVYARDLLLPPSSSELKAGRPEARGSLALDCAPLLRLLGPAPGVSWTAGSPAPAEARTLSRVLKGGSVRKLRRAKQLVLELGEEAILEGCVGPPGEAAVGLLQFNLSELFSWWIRQGEGRLRIRLMPEKKASEVGREGRLSAAIRASQPRLLFQIFGTGHSSLESPTNMPSPSPDYFTWNLTWIMKDSFPFLSHRSRYGLECSFDFPCELEYSPPLHDLRNQSWSWRRIPSEEASQMDLLDGPGAERSKEMPRGSFLLLNTSADSKHTILSPWMRSSSEHCTLAVSVHRHLQPSGRYIAQLLPHNEAAREILLMPTPGKHGWTVLQGRIGRPDNPFRVALEYISSGNRSLSAVDFFALKNCSEGTSPGSKMALQSSFTCWNGTVLQLGQACDFHQDCAQGEDESQMCRKLPVGFYCNFEDGFCGWTQGTLSPHTPQWQVRTLKDARFQDHQDHALLLSTTDVPASESATVTSATFPAPIKSSPCELRMSWLIRGVLRGNVSLVLVENKTGKEQGRMVWHVAAYEGLSLWQWMVLPLLDVSDRFWLQMVAWWGQGSRAIVAFDNISISLDCYLTISGEDKILQNTAPKSRNLFERNPNKELKPGENSPRQTPIFDPTVHWLFTTCGASGPHGPTQAQCNNAYQNSNLSVEVGSEGPLKGIQIWKVPATDTYSISGYGAAGGKGGKNTMMRSHGVSVLGIFNLEKDDMLYILVGQQGEDACPSTNQLIQKVCIGENNVIEEEIRVNRSVHEWAGGGGGGGGATYVFKMKDGVPVPLIIAAGGGGRAYGAKTDTFHPERLENNSSVLGLNGNSGAAGGGGGWNDNTSLLWAGKSLQEGATGGHSCPQAMKKWGWETRGGFGGGGGGCSSGGGGGGYIGGNAASNNDPEMDGEDGVSFISPLGILYTPALKVMEGHGEVNIKHYLNCSHCEVDECHMDPESHKVICFCDHGTVLAEDGVSCIVSPTPEPHLPLSLILSVVTSALVAALVLAFSGIMIVYRRKHQELQAMQMELQSPEYKLSKLRTSTIMTDYNPNYCFAGKTSSISDLKEVPRKNITLIRGLGHGAFGEVYEGQVSGMPNDPSPLQVAVKTLPEVCSEQDELDFLMEALIISKFNHQNIVRCIGVSLQSLPRFILLELMAGGDLKSFLRETRPRPSQPSSLAMLDLLHVARDIACGCQYLEENHFIHRDIAARNCLLTCPGPGRVAKIGDFGMARDIYRASYYRKGGCAMLPVKWMPPEAFMEGIFTSKTDTWSFGVLLWEIFSLGYMPYPSKSNQEVLEFVTSGGRMDPPKNCPGPVYRIMTQCWQHQPEDRPNFAIILERIEYCTQDPDVINTALPIEYGPLVEEEEKVPVRPKDPEGVPPLLVSQQAKREEERSPAAPPPLPTTSSGKAAKKPTAAEISVRVPRGPAVEGGHVNMAFSQSNPPSELHKVHGSRNKPTSLWNPTYGSWFTEKPTKKNNPIAKKEPHDRGNLGLEGSCTVPPNVATGRLPGASLLLEPSSLTANMKEVPLFRLRHFPCGNVNYGYQQQGLPLEAATAPGAGHYEDTILKSKNSMNQPGP

> <PDB ID(s) of Target Chain>
2XB7,2XBA,3AOX,5FTO,5FTQ,6E0R,6EBW,6EDL,6MX8

> <UniProt (SwissProt) Recommended Name of Target Chain>
ALK tyrosine kinase receptor

> <UniProt (SwissProt) Entry Name of Target Chain>
ALK_HUMAN

> <UniProt (SwissProt) Primary ID of Target Chain>
Q9UM73

> <UniProt (SwissProt) Secondary ID(s) of Target Chain>
Q4ZFX9,Q53QQ6,Q53RZ4,Q59FI3,Q9Y4K6

> <UniProt (SwissProt) Alternative ID(s) of Target Chain>


> <UniProt (TrEMBL) Submitted Name of Target Chain>


> <UniProt (TrEMBL) Entry Name of Target Chain>


> <UniProt (TrEMBL) Primary ID of Target Chain>


> <UniProt (TrEMBL) Secondary ID(s) of Target Chain>


> <UniProt (TrEMBL) Alternative ID(s) of Target Chain>


$$$$

  SciTegic04201609482D

 40 44  0  0  0  0            999 V2000
   -4.1157    6.0164    0.0000 C   0  0
   -5.4175    5.2712    0.0000 C   0  0
   -5.4230    3.7712    0.0000 N   0  0
   -4.1268    3.0163    0.0000 C   0  0
   -2.8250    3.7616    0.0000 N   0  0
   -2.8195    5.2616    0.0000 C   0  0
   -4.1113    7.2164    0.0000 Cl  0  0
   -4.1292    1.5155    0.0000 N   0  0
   -1.5154    6.0046    0.0000 N   0  0
   -0.2195    5.2476    0.0000 C   0  0
   -0.2301    3.7475    0.0000 C   0  0
    1.0635    2.9883    0.0000 C   0  0
    2.3679    3.7290    0.0000 C   0  0
    2.3786    5.2290    0.0000 C   0  0
    1.0849    5.9882    0.0000 C   0  0
    1.0957    7.4890    0.0000 S   0  0
    2.4003    8.2309    0.0000 C   0  0
    2.4089    9.4309    0.0000 C   0  0
    3.4354    7.6238    0.0000 C   0  0
    1.1037    8.6890    0.0000 O   0  0
    0.0606    8.0961    0.0000 O   0  0
   -2.8315    0.7623    0.0000 C   0  0
   -2.8315   -0.7623    0.0000 C   0  0
   -1.4884   -1.5247    0.0000 C   0  0
   -1.4884    1.5247    0.0000 C   0  0
    0.7442   -1.6517    0.0000 C   0  0
    2.2325   -1.4158    0.0000 N   0  0
    2.9404    0.0000    0.0000 C   0  0
    0.0000   -0.7623    0.0000 C   0  0
    0.0000    0.7623    0.0000 C   0  0
    0.7805    1.6880    0.0000 C   0  0
    2.2507    1.3976    0.0000 C   0  0
   -4.1292   -1.5155    0.0000 O   0  0
   -4.1273   -2.7155    0.0000 C   0  0
    3.1193   -2.6265    0.0000 C   0  0
    4.6070   -2.4154    0.0000 C   0  0
    5.5326   -3.5958    0.0000 C   0  0
    4.9732   -4.9876    0.0000 N   0  0
    3.4882   -5.1990    0.0000 C   0  0
    2.5626   -4.0187    0.0000 C   0  0
  1  2  2  0
  2  3  1  0
  3  4  2  0
  4  5  1  0
  5  6  2  0
  6  1  1  0
  1  7  1  0
  4  8  1  0
  6  9  1  0
  9 10  1  0
 10 11  2  0
 11 12  1  0
 12 13  2  0
 13 14  1  0
 14 15  2  0
 15 10  1  0
 15 16  1  0
 16 17  1  0
 17 18  1  0
 17 19  1  0
 16 20  2  0
 16 21  2  0
  8 22  1  0
 22 23  2  0
 23 24  1  0
 24 29  2  0
 30 25  2  0
 25 22  1  0
 26 27  1  0
 27 28  1  0
 26 29  1  0
 30 31  1  0
 31 32  1  0
 32 28  1  0
 29 30  1  0
 23 33  1  0
 33 34  1  0
 27 35  1  0
 35 36  1  0
 35 40  1  0
 36 37  1  0
 37 38  1  0
 38 39  1  0
 39 40  1  0
M  END
> <From>
www.bindingDB.org

> <BindingDB Reactant_set_id>
50405202

> <Ligand InChI>
InChI=1S/C29H37ClN6O3S/c1-19(2)40(37,38)27-9-5-4-8-24(27)33-28-23(30)17-32-29(35-28)34-25-15-20-7-6-14-36(22-10-12-31-13-11-22)18-21(20)16-26(25)39-3/h4-5,8-9,15-17,19,22,31H,6-7,10-14,18H2,1-3H3,(H2,32,33,34,35)

> <Ligand InChI Key>
INPHYWINOJFIAJ-UHFFFAOYSA-N

> <BindingDB MonomerID>
50116699

> <BindingDB Ligand Name>
CHEMBL3608642::US10053458, 53

> <Target Name Assigned by Curator or DataSource>
ALK tyrosine kinase receptor

> <Target Source Organism According to Curator or DataSource>
Homo sapiens

> <Ki (nM)>


> <IC50 (nM)>
 1000

> <Kd (nM)>


> <EC50 (nM)>


> <kon (M-1-s-1)>


> <koff (s-1)>


> <pH>


> <Temp C>


> <Curation/DataSource>
ChEMBL

> <Article DOI>
10.1016/j.bmcl.2015.07.004

> <PMID>
26235945

> <PubChem AID>


> <Patent Number>


> <Authors>
Kang, GA; Lee, M; Song, D; Lee, HK; Ahn, S; Park, CH; Lee, CO; Yun, CS; Jung, H; Kim, P; Ha, JD; Cho, SY; Kim, HR; Hwang, JY

> <Institution>
Korea Research Institute of Chemical Technology

> <Link to Ligand in BindingDB>
http://www.bindingdb.org/bind/chemsearch/marvin/MolStructure.jsp?monomerid=50116699

> <Link to Ligand-Target Pair in BindingDB>
http://www.bindingdb.org/jsp/dbsearch/PrimarySearch_ki.jsp?energyterm=kJ/mole&tag=pol&polymerid=5809&target=ALK+tyrosine+kinase+receptor&column=ki&startPg=0&Increment=50&submit=Search

> <Link to Ligand-Target Pair in BindingDB>
http://www.bindingdb.org/jsp/dbsearch/PrimarySearch_ki.jsp?energyterm=kJ/mole&tag=r21&monomerid=50116699&enzyme=ALK+tyrosine+kinase+receptor&column=ki&startPg=0&Increment=50&submit=Search

> <Ligand HET ID in PDB>


> <PDB ID(s) for Ligand-Target Complex>


> <PubChem CID>
122187040

> <PubChem SID>
319494347

> <ChEBI ID of Ligand>


> <ChEMBL ID of Ligand>
CHEMBL3608642

> <DrugBank ID of Ligand>


> <IUPHAR_GRAC ID of Ligand>


> <KEGG ID of Ligand>


> <ZINC ID of Ligand>


> <Number of Protein Chains in Target (>1 implies a multichain complex)>
1

> <BindingDB Target Chain Sequence>
MGAIGLLWLLPLLLSTAAVGSGMGTGQRAGSPAAGPPLQPREPLSYSRLQRKSLAVDFVVPSLFRVYARDLLLPPSSSELKAGRPEARGSLALDCAPLLRLLGPAPGVSWTAGSPAPAEARTLSRVLKGGSVRKLRRAKQLVLELGEEAILEGCVGPPGEAAVGLLQFNLSELFSWWIRQGEGRLRIRLMPEKKASEVGREGRLSAAIRASQPRLLFQIFGTGHSSLESPTNMPSPSPDYFTWNLTWIMKDSFPFLSHRSRYGLECSFDFPCELEYSPPLHDLRNQSWSWRRIPSEEASQMDLLDGPGAERSKEMPRGSFLLLNTSADSKHTILSPWMRSSSEHCTLAVSVHRHLQPSGRYIAQLLPHNEAAREILLMPTPGKHGWTVLQGRIGRPDNPFRVALEYISSGNRSLSAVDFFALKNCSEGTSPGSKMALQSSFTCWNGTVLQLGQACDFHQDCAQGEDESQMCRKLPVGFYCNFEDGFCGWTQGTLSPHTPQWQVRTLKDARFQDHQDHALLLSTTDVPASESATVTSATFPAPIKSSPCELRMSWLIRGVLRGNVSLVLVENKTGKEQGRMVWHVAAYEGLSLWQWMVLPLLDVSDRFWLQMVAWWGQGSRAIVAFDNISISLDCYLTISGEDKILQNTAPKSRNLFERNPNKELKPGENSPRQTPIFDPTVHWLFTTCGASGPHGPTQAQCNNAYQNSNLSVEVGSEGPLKGIQIWKVPATDTYSISGYGAAGGKGGKNTMMRSHGVSVLGIFNLEKDDMLYILVGQQGEDACPSTNQLIQKVCIGENNVIEEEIRVNRSVHEWAGGGGGGGGATYVFKMKDGVPVPLIIAAGGGGRAYGAKTDTFHPERLENNSSVLGLNGNSGAAGGGGGWNDNTSLLWAGKSLQEGATGGHSCPQAMKKWGWETRGGFGGGGGGCSSGGGGGGYIGGNAASNNDPEMDGEDGVSFISPLGILYTPALKVMEGHGEVNIKHYLNCSHCEVDECHMDPESHKVICFCDHGTVLAEDGVSCIVSPTPEPHLPLSLILSVVTSALVAALVLAFSGIMIVYRRKHQELQAMQMELQSPEYKLSKLRTSTIMTDYNPNYCFAGKTSSISDLKEVPRKNITLIRGLGHGAFGEVYEGQVSGMPNDPSPLQVAVKTLPEVCSEQDELDFLMEALIISKFNHQNIVRCIGVSLQSLPRFILLELMAGGDLKSFLRETRPRPSQPSSLAMLDLLHVARDIACGCQYLEENHFIHRDIAARNCLLTCPGPGRVAKIGDFGMARDIYRASYYRKGGCAMLPVKWMPPEAFMEGIFTSKTDTWSFGVLLWEIFSLGYMPYPSKSNQEVLEFVTSGGRMDPPKNCPGPVYRIMTQCWQHQPEDRPNFAIILERIEYCTQDPDVINTALPIEYGPLVEEEEKVPVRPKDPEGVPPLLVSQQAKREEERSPAAPPPLPTTSSGKAAKKPTAAEISVRVPRGPAVEGGHVNMAFSQSNPPSELHKVHGSRNKPTSLWNPTYGSWFTEKPTKKNNPIAKKEPHDRGNLGLEGSCTVPPNVATGRLPGASLLLEPSSLTANMKEVPLFRLRHFPCGNVNYGYQQQGLPLEAATAPGAGHYEDTILKSKNSMNQPGP

> <PDB ID(s) of Target Chain>
2XB7,2XBA,3AOX,5FTO,5FTQ,6E0R,6EBW,6EDL,6MX8

> <UniProt (SwissProt) Recommended Name of Target Chain>
ALK tyrosine kinase receptor

> <UniProt (SwissProt) Entry Name of Target Chain>
ALK_HUMAN

> <UniProt (SwissProt) Primary ID of Target Chain>
Q9UM73

> <UniProt (SwissProt) Secondary ID(s) of Target Chain>
Q4ZFX9,Q53QQ6,Q53RZ4,Q59FI3,Q9Y4K6

> <UniProt (SwissProt) Alternative ID(s) of Target Chain>


> <UniProt (TrEMBL) Submitted Name of Target Chain>


> <UniProt (TrEMBL) Entry Name of Target Chain>


> <UniProt (TrEMBL) Primary ID of Target Chain>


> <UniProt (TrEMBL) Secondary ID(s) of Target Chain>


> <UniProt (TrEMBL) Alternative ID(s) of Target Chain>


$$$$

  SciTegic12191611462D

 43 47  0  0  0  0            999 V2000
   -3.9067    3.0027    0.0000 C   0  0
   -5.2030    3.7575    0.0000 N   0  0
   -5.1976    5.2575    0.0000 C   0  0
   -3.8958    6.0028    0.0000 C   0  0
   -2.5995    5.2481    0.0000 C   0  0
   -2.6050    3.7481    0.0000 N   0  0
   -3.9091    1.5019    0.0000 N   0  0
   -6.4962    6.0100    0.0000 N   0  0
   -1.2964    1.4973    0.0000 C   0  0
   -2.6111    0.7486    0.0000 C   0  0
   -2.6111   -0.7486    0.0000 C   0  0
   -1.2964   -1.4973    0.0000 C   0  0
    0.0000   -0.7486    0.0000 C   0  0
    1.2964   -1.4973    0.0000 C   0  0
    2.5929   -0.7486    0.0000 C   0  0
    2.5929    0.7486    0.0000 C   0  0
    1.2964    1.4973    0.0000 C   0  0
    0.0000    0.7486    0.0000 C   0  0
    3.8942   -1.4964    0.0000 N   0  0
    5.1929   -0.7441    0.0000 N   0  0
    6.4946   -1.4896    0.0000 C   0  0
    7.7910   -0.7351    0.0000 C   0  0
    7.7858    0.7649    0.0000 N   0  0
    6.4842    1.5104    0.0000 C   0  0
    5.1877    0.7559    0.0000 C   0  0
    8.8230    1.3685    0.0000 C   0  0
    0.2433   -2.0726    0.0000 C   0  0
    2.3495   -2.0727    0.0000 C   0  0
   -3.9091   -1.5019    0.0000 O   0  0
   -3.9072   -2.7019    0.0000 C   0  0
   -7.7976    5.2625    0.0000 C   0  0
   -9.0965    6.0126    0.0000 C   0  0
  -10.3957    5.2628    0.0000 C   0  0
  -10.3960    3.7628    0.0000 C   0  0
   -9.0971    3.0126    0.0000 C   0  0
   -7.7979    3.7624    0.0000 C   0  0
   -9.0963    7.5134    0.0000 S   0  0
   -7.7970    8.2645    0.0000 C   0  0
   -7.7968    9.4645    0.0000 C   0  0
   -6.7576    7.6647    0.0000 C   0  0
   -3.8915    7.2028    0.0000 Cl  0  0
   -9.0967    8.7134    0.0000 O   0  0
  -10.1357    8.1133    0.0000 O   0  0
  1  2  1  0
  2  3  2  0
  3  4  1  0
  4  5  2  0
  5  6  1  0
  1  6  2  0
  1  7  1  0
  3  8  1  0
  9 10  1  0
 10 11  2  0
 11 12  1  0
 12 13  2  0
 13 14  1  0
 14 15  1  0
 15 16  1  0
 16 17  1  0
 17 18  1  0
  9 18  2  0
 13 18  1  0
 20 21  1  0
 21 22  1  0
 22 23  1  0
 23 24  1  0
 24 25  1  0
 20 25  1  0
 23 26  1  0
 19 20  1  0
 15 19  2  0
 14 27  1  0
 14 28  1  0
 29 30  1  0
 11 29  1  0
  7 10  1  0
 31 32  1  0
 32 33  2  0
 33 34  1  0
 34 35  2  0
 35 36  1  0
 31 36  2  0
 38 39  1  0
 38 40  1  0
 37 38  1  0
 32 37  1  0
  8 31  1  0
  4 41  1  0
 37 42  2  0
 37 43  2  0
M  END
> <From>
www.bindingDB.org

> <BindingDB Reactant_set_id>
50484651

> <Ligand InChI>
InChI=1S/C31H40ClN7O3S/c1-20(2)43(40,41)27-10-8-7-9-24(27)34-29-23(32)19-33-30(36-29)35-25-17-21-11-12-28(37-39-15-13-38(5)14-16-39)31(3,4)22(21)18-26(25)42-6/h7-10,17-20H,11-16H2,1-6H3,(H2,33,34,35,36)/b37-28+

> <Ligand InChI Key>
HRJNXIYDEXHXQM-PNFNHJRFSA-N

> <BindingDB MonomerID>
50157303

> <BindingDB Ligand Name>
CHEMBL3785774

> <Target Name Assigned by Curator or DataSource>
ALK tyrosine kinase receptor

> <Target Source Organism According to Curator or DataSource>
Homo sapiens

> <Ki (nM)>


> <IC50 (nM)>
 8.4

> <Kd (nM)>


> <EC50 (nM)>


> <kon (M-1-s-1)>


> <koff (s-1)>


> <pH>


> <Temp C>


> <Curation/DataSource>
ChEMBL

> <Article DOI>
10.1016/j.bmcl.2016.02.052

> <PMID>
26923695

> <PubChem AID>


> <Patent Number>


> <Authors>
Song, D; Lee, M; Park, CH; Ahn, S; Yun, CS; Lee, CO; Kim, HR; Hwang, JY

> <Institution>
Chungbuk National University

> <Link to Ligand in BindingDB>
http://www.bindingdb.org/bind/chemsearch/marvin/MolStructure.jsp?monomerid=50157303

> <Link to Ligand-Target Pair in BindingDB>
http://www.bindingdb.org/jsp/dbsearch/PrimarySearch_ki.jsp?energyterm=kJ/mole&tag=pol&polymerid=5809&target=ALK+tyrosine+kinase+receptor&column=ki&startPg=0&Increment=50&submit=Search

> <Link to Ligand-Target Pair in BindingDB>
http://www.bindingdb.org/jsp/dbsearch/PrimarySearch_ki.jsp?energyterm=kJ/mole&tag=r21&monomerid=50157303&enzyme=ALK+tyrosine+kinase+receptor&column=ki&startPg=0&Increment=50&submit=Search

> <Ligand HET ID in PDB>


> <PDB ID(s) for Ligand-Target Complex>


> <PubChem CID>
127030999

> <PubChem SID>
340134028

> <ChEBI ID of Ligand>


> <ChEMBL ID of Ligand>
CHEMBL3785774

> <DrugBank ID of Ligand>


> <IUPHAR_GRAC ID of Ligand>


> <KEGG ID of Ligand>


> <ZINC ID of Ligand>


> <Number of Protein Chains in Target (>1 implies a multichain complex)>
1

> <BindingDB Target Chain Sequence>
MGAIGLLWLLPLLLSTAAVGSGMGTGQRAGSPAAGPPLQPREPLSYSRLQRKSLAVDFVVPSLFRVYARDLLLPPSSSELKAGRPEARGSLALDCAPLLRLLGPAPGVSWTAGSPAPAEARTLSRVLKGGSVRKLRRAKQLVLELGEEAILEGCVGPPGEAAVGLLQFNLSELFSWWIRQGEGRLRIRLMPEKKASEVGREGRLSAAIRASQPRLLFQIFGTGHSSLESPTNMPSPSPDYFTWNLTWIMKDSFPFLSHRSRYGLECSFDFPCELEYSPPLHDLRNQSWSWRRIPSEEASQMDLLDGPGAERSKEMPRGSFLLLNTSADSKHTILSPWMRSSSEHCTLAVSVHRHLQPSGRYIAQLLPHNEAAREILLMPTPGKHGWTVLQGRIGRPDNPFRVALEYISSGNRSLSAVDFFALKNCSEGTSPGSKMALQSSFTCWNGTVLQLGQACDFHQDCAQGEDESQMCRKLPVGFYCNFEDGFCGWTQGTLSPHTPQWQVRTLKDARFQDHQDHALLLSTTDVPASESATVTSATFPAPIKSSPCELRMSWLIRGVLRGNVSLVLVENKTGKEQGRMVWHVAAYEGLSLWQWMVLPLLDVSDRFWLQMVAWWGQGSRAIVAFDNISISLDCYLTISGEDKILQNTAPKSRNLFERNPNKELKPGENSPRQTPIFDPTVHWLFTTCGASGPHGPTQAQCNNAYQNSNLSVEVGSEGPLKGIQIWKVPATDTYSISGYGAAGGKGGKNTMMRSHGVSVLGIFNLEKDDMLYILVGQQGEDACPSTNQLIQKVCIGENNVIEEEIRVNRSVHEWAGGGGGGGGATYVFKMKDGVPVPLIIAAGGGGRAYGAKTDTFHPERLENNSSVLGLNGNSGAAGGGGGWNDNTSLLWAGKSLQEGATGGHSCPQAMKKWGWETRGGFGGGGGGCSSGGGGGGYIGGNAASNNDPEMDGEDGVSFISPLGILYTPALKVMEGHGEVNIKHYLNCSHCEVDECHMDPESHKVICFCDHGTVLAEDGVSCIVSPTPEPHLPLSLILSVVTSALVAALVLAFSGIMIVYRRKHQELQAMQMELQSPEYKLSKLRTSTIMTDYNPNYCFAGKTSSISDLKEVPRKNITLIRGLGHGAFGEVYEGQVSGMPNDPSPLQVAVKTLPEVCSEQDELDFLMEALIISKFNHQNIVRCIGVSLQSLPRFILLELMAGGDLKSFLRETRPRPSQPSSLAMLDLLHVARDIACGCQYLEENHFIHRDIAARNCLLTCPGPGRVAKIGDFGMARDIYRASYYRKGGCAMLPVKWMPPEAFMEGIFTSKTDTWSFGVLLWEIFSLGYMPYPSKSNQEVLEFVTSGGRMDPPKNCPGPVYRIMTQCWQHQPEDRPNFAIILERIEYCTQDPDVINTALPIEYGPLVEEEEKVPVRPKDPEGVPPLLVSQQAKREEERSPAAPPPLPTTSSGKAAKKPTAAEISVRVPRGPAVEGGHVNMAFSQSNPPSELHKVHGSRNKPTSLWNPTYGSWFTEKPTKKNNPIAKKEPHDRGNLGLEGSCTVPPNVATGRLPGASLLLEPSSLTANMKEVPLFRLRHFPCGNVNYGYQQQGLPLEAATAPGAGHYEDTILKSKNSMNQPGP

> <PDB ID(s) of Target Chain>
2XB7,2XBA,3AOX,5FTO,5FTQ,6E0R,6EBW,6EDL,6MX8

> <UniProt (SwissProt) Recommended Name of Target Chain>
ALK tyrosine kinase receptor

> <UniProt (SwissProt) Entry Name of Target Chain>
ALK_HUMAN

> <UniProt (SwissProt) Primary ID of Target Chain>
Q9UM73

> <UniProt (SwissProt) Secondary ID(s) of Target Chain>
Q4ZFX9,Q53QQ6,Q53RZ4,Q59FI3,Q9Y4K6

> <UniProt (SwissProt) Alternative ID(s) of Target Chain>


> <UniProt (TrEMBL) Submitted Name of Target Chain>


> <UniProt (TrEMBL) Entry Name of Target Chain>


> <UniProt (TrEMBL) Primary ID of Target Chain>


> <UniProt (TrEMBL) Secondary ID(s) of Target Chain>


> <UniProt (TrEMBL) Alternative ID(s) of Target Chain>


$$$$
BindingDB_50157313

Vconf v2.0 Academic SN VC001-00000245
 91 94  0  0  0  0  0  0  0  0999 V2000
   -1.7830    2.1400    1.9750 C   0  0  0  0  0  0  0  0  0  0  0
   -0.3160    2.0890    2.2030 C   0  0  1  0  0  0  0  0  0  0  0
    3.0480    0.1950    0.5030 C   0  0  0  0  0  0  0  0  0  0  0
    4.2720   -1.8100    3.0850 C   0  0  0  0  0  0  0  0  0  0  0
    5.3130   -1.6850    4.1150 C   0  0  1  0  0  0  0  0  0  0  0
    2.2440    0.9590    1.3120 N   0  0  0  0  0  0  0  0  0  0  0
    3.4720   -1.1850    0.8400 C   0  0  2  0  0  0  0  0  0  0  0
    4.3930   -1.1190    1.9290 N   0  0  0  0  0  0  0  0  0  0  0
    6.5280   -0.1010    5.5870 N   0  0  0  0  0  0  0  0  0  0  0
   -2.6150    1.5300    2.8500 N   0  0  0  0  0  0  0  0  0  0  0
    6.5870   -2.1960    3.5840 N   0  0  0  0  0  0  0  0  0  0  0
    0.1080    0.6090    2.3970 C   0  0  0  0  0  0  0  0  0  0  0
    0.4320    2.5520    0.9190 C   0  0  0  0  0  0  0  0  0  0  0
    5.4710   -0.2170    4.5610 C   0  0  0  0  0  0  0  0  0  0  0
    1.6360    0.4620    2.5070 C   0  0  0  0  0  0  0  0  0  0  0
    1.9530    2.3270    0.9950 C   0  0  0  0  0  0  0  0  0  0  0
   -2.2480    2.7770    1.0040 O   0  0  0  0  0  0  0  0  0  0  0
    4.1730   -1.8910   -0.3500 C   0  0  0  0  0  0  0  0  0  0  0
    3.4830    0.6960   -0.5600 O   0  0  0  0  0  0  0  0  0  0  0
    3.2860   -2.5530    3.2880 O   0  0  0  0  0  0  0  0  0  0  0
   -4.0380    1.5710    2.8140 C   0  0  0  0  0  0  0  0  0  0  0
    0.0750    2.9840    3.4300 C   0  0  0  0  0  0  0  0  0  0  0
    6.6510    1.3150    6.0010 C   0  0  0  0  0  0  0  0  0  0  0
    7.5400    1.5020    7.2440 C   0  0  0  0  0  0  0  0  0  0  0
    4.5870   -3.2760   -0.0350 C   0  0  0  0  0  0  0  0  0  0  0
    5.3750   -5.9150    0.5910 C   0  0  0  0  0  0  0  0  0  0  0
    7.6370   -2.0800    4.6050 C   0  0  0  0  0  0  0  0  0  0  0
    7.5230    2.8200    7.6290 F   0  0  0  0  0  0  0  0  0  0  0
    7.0820    0.7340    8.2850 F   0  0  0  0  0  0  0  0  0  0  0
    5.7390   -7.1320    0.8830 F   0  0  0  0  0  0  0  0  0  0  0
    7.8010   -0.6160    5.0400 C   0  0  0  0  0  0  0  0  0  0  0
    5.9520   -3.6250   -0.0020 C   0  0  0  0  0  0  0  0  0  0  0
    3.6200   -4.2630    0.2450 C   0  0  0  0  0  0  0  0  0  0  0
    6.3460   -4.9380    0.3100 C   0  0  0  0  0  0  0  0  0  0  0
    4.0110   -5.5760    0.5570 C   0  0  0  0  0  0  0  0  0  0  0
   -4.5320    0.7380    4.0090 C   0  0  0  0  0  0  0  0  0  0  0
   -4.5540    3.0130    2.9810 C   0  0  0  0  0  0  0  0  0  0  0
   -4.5960    0.9450    1.5210 C   0  0  0  0  0  0  0  0  0  0  0
   -0.4440    4.4380    3.3050 C   0  0  0  0  0  0  0  0  0  0  0
   -0.3810    2.4210    4.7980 C   0  0  0  0  0  0  0  0  0  0  0
    0.0730    5.3110    4.4580 C   0  0  0  0  0  0  0  0  0  0  0
    0.1460    3.2890    5.9500 C   0  0  0  0  0  0  0  0  0  0  0
   -0.3630    4.7300    5.8100 C   0  0  0  0  0  0  0  0  0  0  0
    5.0240   -2.2850    4.9800 H   0  0  0  0  0  0  0  0  0  0  0
    2.5810   -1.7660    1.0890 H   0  0  0  0  0  0  0  0  0  0  0
    5.1770   -0.5600    1.8170 H   0  0  0  0  0  0  0  0  0  0  0
   -2.2030    1.0410    3.5790 H   0  0  0  0  0  0  0  0  0  0  0
    6.8560   -1.5900    2.8080 H   0  0  0  0  0  0  0  0  0  0  0
   -0.2220    0.0230    1.5370 H   0  0  0  0  0  0  0  0  0  0  0
   -0.3560    0.1830    3.2860 H   0  0  0  0  0  0  0  0  0  0  0
    0.2410    3.6060    0.7220 H   0  0  0  0  0  0  0  0  0  0  0
    0.0610    1.9820    0.0650 H   0  0  0  0  0  0  0  0  0  0  0
    5.7250    0.4080    3.7020 H   0  0  0  0  0  0  0  0  0  0  0
    4.5240    0.1280    4.9820 H   0  0  0  0  0  0  0  0  0  0  0
    1.8450   -0.5890    2.6850 H   0  0  0  0  0  0  0  0  0  0  0
    2.0040    1.0250    3.3640 H   0  0  0  0  0  0  0  0  0  0  0
    2.3820    2.9690    1.7630 H   0  0  0  0  0  0  0  0  0  0  0
    2.3800    2.6330    0.0390 H   0  0  0  0  0  0  0  0  0  0  0
    3.4880   -1.9210   -1.2000 H   0  0  0  0  0  0  0  0  0  0  0
    5.0440   -1.3010   -0.6430 H   0  0  0  0  0  0  0  0  0  0  0
    1.1610    3.0440    3.4740 H   0  0  0  0  0  0  0  0  0  0  0
    7.0580    1.9070    5.1790 H   0  0  0  0  0  0  0  0  0  0  0
    5.6570    1.7000    6.2410 H   0  0  0  0  0  0  0  0  0  0  0
    8.5670    1.2220    7.0150 H   0  0  0  0  0  0  0  0  0  0  0
    7.3790   -2.6920    5.4700 H   0  0  0  0  0  0  0  0  0  0  0
    8.5790   -2.4370    4.1880 H   0  0  0  0  0  0  0  0  0  0  0
    8.1150   -0.0180    4.1820 H   0  0  0  0  0  0  0  0  0  0  0
    8.5790   -0.5790    5.8030 H   0  0  0  0  0  0  0  0  0  0  0
    6.6650   -2.9220   -0.2010 H   0  0  0  0  0  0  0  0  0  0  0
    2.6270   -4.0260    0.2250 H   0  0  0  0  0  0  0  0  0  0  0
    7.3370   -5.1780    0.3320 H   0  0  0  0  0  0  0  0  0  0  0
    3.3010   -6.2820    0.7600 H   0  0  0  0  0  0  0  0  0  0  0
   -5.6230    0.7430    4.0390 H   0  0  0  0  0  0  0  0  0  0  0
   -4.1850   -0.2910    3.9140 H   0  0  0  0  0  0  0  0  0  0  0
   -4.1490    1.1600    4.9390 H   0  0  0  0  0  0  0  0  0  0  0
   -5.6400    3.0060    3.0820 H   0  0  0  0  0  0  0  0  0  0  0
   -4.1150    3.4600    3.8740 H   0  0  0  0  0  0  0  0  0  0  0
   -4.2860    3.6150    2.1130 H   0  0  0  0  0  0  0  0  0  0  0
   -5.6830    0.8820    1.5830 H   0  0  0  0  0  0  0  0  0  0  0
   -4.3310    1.5550    0.6580 H   0  0  0  0  0  0  0  0  0  0  0
   -4.1870   -0.0570    1.3890 H   0  0  0  0  0  0  0  0  0  0  0
   -1.5350    4.4480    3.3210 H   0  0  0  0  0  0  0  0  0  0  0
   -0.1020    4.8790    2.3710 H   0  0  0  0  0  0  0  0  0  0  0
   -1.4680    2.3960    4.8550 H   0  0  0  0  0  0  0  0  0  0  0
    0.0110    1.4160    4.9410 H   0  0  0  0  0  0  0  0  0  0  0
    1.1620    5.3590    4.4170 H   0  0  0  0  0  0  0  0  0  0  0
   -0.3300    6.3190    4.3550 H   0  0  0  0  0  0  0  0  0  0  0
   -0.2010    2.8770    6.8980 H   0  0  0  0  0  0  0  0  0  0  0
    1.2370    3.2860    5.9400 H   0  0  0  0  0  0  0  0  0  0  0
   -1.4520    4.7400    5.8770 H   0  0  0  0  0  0  0  0  0  0  0
    0.0480    5.3390    6.6150 H   0  0  0  0  0  0  0  0  0  0  0
  1  2  1  0  0  0  0
  1 10  1  0  0  0  0
  1 17  2  0  0  0  0
  2 12  1  0  0  0  0
  2 13  1  0  0  0  0
  2 22  1  0  0  0  0
  3  6  1  0  0  0  0
  3  7  1  0  0  0  0
  3 19  2  0  0  0  0
  4  5  1  0  0  0  0
  4  8  1  0  0  0  0
  4 20  2  0  0  0  0
  5 11  1  1  0  0  0
  5 14  1  0  0  0  0
  5 44  1  0  0  0  0
  6 15  1  0  0  0  0
  6 16  1  0  0  0  0
  7  8  1  6  0  0  0
  7 18  1  0  0  0  0
  7 45  1  0  0  0  0
  8 46  1  0  0  0  0
  9 14  1  0  0  0  0
  9 23  1  0  0  0  0
  9 31  1  0  0  0  0
 10 21  1  0  0  0  0
 10 47  1  0  0  0  0
 11 27  1  0  0  0  0
 11 48  1  0  0  0  0
 12 15  1  0  0  0  0
 12 49  1  0  0  0  0
 12 50  1  0  0  0  0
 13 16  1  0  0  0  0
 13 51  1  0  0  0  0
 13 52  1  0  0  0  0
 14 53  1  0  0  0  0
 14 54  1  0  0  0  0
 15 55  1  0  0  0  0
 15 56  1  0  0  0  0
 16 57  1  0  0  0  0
 16 58  1  0  0  0  0
 18 25  1  0  0  0  0
 18 59  1  0  0  0  0
 18 60  1  0  0  0  0
 21 36  1  0  0  0  0
 21 37  1  0  0  0  0
 21 38  1  0  0  0  0
 22 39  1  0  0  0  0
 22 40  1  0  0  0  0
 22 61  1  0  0  0  0
 23 24  1  0  0  0  0
 23 62  1  0  0  0  0
 23 63  1  0  0  0  0
 24 28  1  0  0  0  0
 24 29  1  0  0  0  0
 24 64  1  0  0  0  0
 25 32  1  0  0  0  0
 25 33  2  0  0  0  0
 26 30  1  0  0  0  0
 26 34  1  0  0  0  0
 26 35  2  0  0  0  0
 27 31  1  0  0  0  0
 27 65  1  0  0  0  0
 27 66  1  0  0  0  0
 31 67  1  0  0  0  0
 31 68  1  0  0  0  0
 32 34  2  0  0  0  0
 32 69  1  0  0  0  0
 33 35  1  0  0  0  0
 33 70  1  0  0  0  0
 34 71  1  0  0  0  0
 35 72  1  0  0  0  0
 36 73  1  0  0  0  0
 36 74  1  0  0  0  0
 36 75  1  0  0  0  0
 37 76  1  0  0  0  0
 37 77  1  0  0  0  0
 37 78  1  0  0  0  0
 38 79  1  0  0  0  0
 38 80  1  0  0  0  0
 38 81  1  0  0  0  0
 39 41  1  0  0  0  0
 39 82  1  0  0  0  0
 39 83  1  0  0  0  0
 40 42  1  0  0  0  0
 40 84  1  0  0  0  0
 40 85  1  0  0  0  0
 41 43  1  0  0  0  0
 41 86  1  0  0  0  0
 41 87  1  0  0  0  0
 42 43  1  0  0  0  0
 42 88  1  0  0  0  0
 42 89  1  0  0  0  0
 43 90  1  0  0  0  0
 43 91  1  0  0  0  0
M  END
> <From>
www.bindingDB.org

> <BindingDB Reactant_set_id>
50484654

> <Ligand InChI>
InChI=1S/C26H32ClN5O3S/c1-15(2)36(33,34)22-9-7-6-8-19(22)30-24-18(27)14-29-25(32-24)31-20-12-16-10-11-23(28)26(3,4)17(16)13-21(20)35-5/h6-9,12-15,23H,10-11,28H2,1-5H3,(H2,29,30,31,32)

> <Ligand InChI Key>
WMLFTPJTSQTLNL-UHFFFAOYSA-N

> <BindingDB MonomerID>
50157313

> <BindingDB Ligand Name>
CHEMBL3786892

> <Target Name Assigned by Curator or DataSource>
ALK tyrosine kinase receptor

> <Target Source Organism According to Curator or DataSource>
Homo sapiens

> <Ki (nM)>


> <IC50 (nM)>
 1.5

> <Kd (nM)>


> <EC50 (nM)>


> <kon (M-1-s-1)>


> <koff (s-1)>


> <pH>


> <Temp C>


> <Curation/DataSource>
ChEMBL

> <Article DOI>
10.1016/j.bmcl.2016.02.052

> <PMID>
26923695

> <PubChem AID>


> <Patent Number>


> <Authors>
Song, D; Lee, M; Park, CH; Ahn, S; Yun, CS; Lee, CO; Kim, HR; Hwang, JY

> <Institution>
Chungbuk National University

> <Link to Ligand in BindingDB>
http://www.bindingdb.org/bind/chemsearch/marvin/MolStructure.jsp?monomerid=50157313

> <Link to Ligand-Target Pair in BindingDB>
http://www.bindingdb.org/jsp/dbsearch/PrimarySearch_ki.jsp?energyterm=kJ/mole&tag=pol&polymerid=5809&target=ALK+tyrosine+kinase+receptor&column=ki&startPg=0&Increment=50&submit=Search

> <Link to Ligand-Target Pair in BindingDB>
http://www.bindingdb.org/jsp/dbsearch/PrimarySearch_ki.jsp?energyterm=kJ/mole&tag=r21&monomerid=50157313&enzyme=ALK+tyrosine+kinase+receptor&column=ki&startPg=0&Increment=50&submit=Search

> <Ligand HET ID in PDB>


> <PDB ID(s) for Ligand-Target Complex>


> <PubChem CID>
127032122

> <PubChem SID>
104044315

> <ChEBI ID of Ligand>


> <ChEMBL ID of Ligand>
CHEMBL3786892

> <DrugBank ID of Ligand>


> <IUPHAR_GRAC ID of Ligand>


> <KEGG ID of Ligand>


> <ZINC ID of Ligand>
ZINC28340278

> <Number of Protein Chains in Target (>1 implies a multichain complex)>
1

> <BindingDB Target Chain Sequence>
MGAIGLLWLLPLLLSTAAVGSGMGTGQRAGSPAAGPPLQPREPLSYSRLQRKSLAVDFVVPSLFRVYARDLLLPPSSSELKAGRPEARGSLALDCAPLLRLLGPAPGVSWTAGSPAPAEARTLSRVLKGGSVRKLRRAKQLVLELGEEAILEGCVGPPGEAAVGLLQFNLSELFSWWIRQGEGRLRIRLMPEKKASEVGREGRLSAAIRASQPRLLFQIFGTGHSSLESPTNMPSPSPDYFTWNLTWIMKDSFPFLSHRSRYGLECSFDFPCELEYSPPLHDLRNQSWSWRRIPSEEASQMDLLDGPGAERSKEMPRGSFLLLNTSADSKHTILSPWMRSSSEHCTLAVSVHRHLQPSGRYIAQLLPHNEAAREILLMPTPGKHGWTVLQGRIGRPDNPFRVALEYISSGNRSLSAVDFFALKNCSEGTSPGSKMALQSSFTCWNGTVLQLGQACDFHQDCAQGEDESQMCRKLPVGFYCNFEDGFCGWTQGTLSPHTPQWQVRTLKDARFQDHQDHALLLSTTDVPASESATVTSATFPAPIKSSPCELRMSWLIRGVLRGNVSLVLVENKTGKEQGRMVWHVAAYEGLSLWQWMVLPLLDVSDRFWLQMVAWWGQGSRAIVAFDNISISLDCYLTISGEDKILQNTAPKSRNLFERNPNKELKPGENSPRQTPIFDPTVHWLFTTCGASGPHGPTQAQCNNAYQNSNLSVEVGSEGPLKGIQIWKVPATDTYSISGYGAAGGKGGKNTMMRSHGVSVLGIFNLEKDDMLYILVGQQGEDACPSTNQLIQKVCIGENNVIEEEIRVNRSVHEWAGGGGGGGGATYVFKMKDGVPVPLIIAAGGGGRAYGAKTDTFHPERLENNSSVLGLNGNSGAAGGGGGWNDNTSLLWAGKSLQEGATGGHSCPQAMKKWGWETRGGFGGGGGGCSSGGGGGGYIGGNAASNNDPEMDGEDGVSFISPLGILYTPALKVMEGHGEVNIKHYLNCSHCEVDECHMDPESHKVICFCDHGTVLAEDGVSCIVSPTPEPHLPLSLILSVVTSALVAALVLAFSGIMIVYRRKHQELQAMQMELQSPEYKLSKLRTSTIMTDYNPNYCFAGKTSSISDLKEVPRKNITLIRGLGHGAFGEVYEGQVSGMPNDPSPLQVAVKTLPEVCSEQDELDFLMEALIISKFNHQNIVRCIGVSLQSLPRFILLELMAGGDLKSFLRETRPRPSQPSSLAMLDLLHVARDIACGCQYLEENHFIHRDIAARNCLLTCPGPGRVAKIGDFGMARDIYRASYYRKGGCAMLPVKWMPPEAFMEGIFTSKTDTWSFGVLLWEIFSLGYMPYPSKSNQEVLEFVTSGGRMDPPKNCPGPVYRIMTQCWQHQPEDRPNFAIILERIEYCTQDPDVINTALPIEYGPLVEEEEKVPVRPKDPEGVPPLLVSQQAKREEERSPAAPPPLPTTSSGKAAKKPTAAEISVRVPRGPAVEGGHVNMAFSQSNPPSELHKVHGSRNKPTSLWNPTYGSWFTEKPTKKNNPIAKKEPHDRGNLGLEGSCTVPPNVATGRLPGASLLLEPSSLTANMKEVPLFRLRHFPCGNVNYGYQQQGLPLEAATAPGAGHYEDTILKSKNSMNQPGP

> <PDB ID(s) of Target Chain>
2XB7,2XBA,3AOX,5FTO,5FTQ,6E0R,6EBW,6EDL,6MX8

> <UniProt (SwissProt) Recommended Name of Target Chain>
ALK tyrosine kinase receptor

> <UniProt (SwissProt) Entry Name of Target Chain>
ALK_HUMAN

> <UniProt (SwissProt) Primary ID of Target Chain>
Q9UM73

> <UniProt (SwissProt) Secondary ID(s) of Target Chain>
Q4ZFX9,Q53QQ6,Q53RZ4,Q59FI3,Q9Y4K6

> <UniProt (SwissProt) Alternative ID(s) of Target Chain>


> <UniProt (TrEMBL) Submitted Name of Target Chain>


> <UniProt (TrEMBL) Entry Name of Target Chain>


> <UniProt (TrEMBL) Primary ID of Target Chain>


> <UniProt (TrEMBL) Secondary ID(s) of Target Chain>


> <UniProt (TrEMBL) Alternative ID(s) of Target Chain>


$$$$
BindingDB_50157316

Vconf v2.0 Academic SN VC001-00000245
 97100  0  0  0  0  0  0  0  0999 V2000
   -0.9380    3.2380    1.6810 C   0  0  0  0  0  0  0  0  0  0  0
    0.3580    2.5910    2.0160 C   0  0  1  0  0  0  0  0  0  0  0
    2.4530   -0.6770    0.5230 C   0  0  0  0  0  0  0  0  0  0  0
    2.4280    1.1770   -2.4390 C   0  0  0  0  0  0  0  0  0  0  0
    1.3980    1.7460   -3.3160 C   0  0  1  0  0  0  0  0  0  0  0
    2.1650    0.4090    1.3090 N   0  0  0  0  0  0  0  0  0  0  0
    3.0650   -0.5600   -0.8210 C   0  0  2  0  0  0  0  0  0  0  0
    2.1320    0.1060   -1.6720 N   0  0  0  0  0  0  0  0  0  0  0
    0.7890    2.1730   -5.6720 N   0  0  0  0  0  0  0  0  0  0  0
   -1.0760    3.9660    0.5470 N   0  0  0  0  0  0  0  0  0  0  0
    1.2100    3.1670   -2.9820 N   0  0  0  0  0  0  0  0  0  0  0
    0.0820    1.0890    2.3000 C   0  0  0  0  0  0  0  0  0  0  0
    1.3090    2.6100    0.7820 C   0  0  0  0  0  0  0  0  0  0  0
    1.8170    1.5890   -4.7900 C   0  0  0  0  0  0  0  0  0  0  0
    1.3800    0.2850    2.4970 C   0  0  0  0  0  0  0  0  0  0  0
    2.5630    1.7430    0.9870 C   0  0  0  0  0  0  0  0  0  0  0
   -1.9000    3.1220    2.4720 O   0  0  0  0  0  0  0  0  0  0  0
    3.4000   -1.9390   -1.4460 C   0  0  0  0  0  0  0  0  0  0  0
    2.1250   -1.8190    0.9230 O   0  0  0  0  0  0  0  0  0  0  0
    3.5760    1.6770   -2.4320 O   0  0  0  0  0  0  0  0  0  0  0
   -2.2490    4.6670    0.1450 C   0  0  0  0  0  0  0  0  0  0  0
    1.0240    3.3140    3.2390 C   0  0  0  0  0  0  0  0  0  0  0
    1.1830    1.9700   -7.0830 C   0  0  0  0  0  0  0  0  0  0  0
    3.9840   -1.8200   -2.8000 C   0  0  0  0  0  0  0  0  0  0  0
    5.0720   -1.5240   -5.3900 C   0  0  0  0  0  0  0  0  0  0  0
    0.2140    3.7690   -3.8790 C   0  0  0  0  0  0  0  0  0  0  0
    5.5700   -1.3820   -6.5850 F   0  0  0  0  0  0  0  0  0  0  0
    0.6310    3.6060   -5.3490 C   0  0  0  0  0  0  0  0  0  0  0
    5.2370   -1.1990   -2.9820 C   0  0  0  0  0  0  0  0  0  0  0
    3.2860   -2.2980   -3.9270 C   0  0  0  0  0  0  0  0  0  0  0
    5.7780   -1.0500   -4.2710 C   0  0  0  0  0  0  0  0  0  0  0
    3.8250   -2.1500   -5.2170 C   0  0  0  0  0  0  0  0  0  0  0
    0.0630    2.3410   -8.0750 C   0  0  0  0  0  0  0  0  0  0  0
   -1.9220    5.3410   -1.1980 C   0  0  0  0  0  0  0  0  0  0  0
   -3.4380    3.7100   -0.0710 C   0  0  0  0  0  0  0  0  0  0  0
   -2.6220    5.7650    1.1600 C   0  0  0  0  0  0  0  0  0  0  0
    1.2040    4.8350    3.0090 C   0  0  0  0  0  0  0  0  0  0  0
    0.2790    3.1050    4.5790 C   0  0  0  0  0  0  0  0  0  0  0
    0.4860    1.9610   -9.5030 C   0  0  0  0  0  0  0  0  0  0  0
   -1.2490    1.6230   -7.7180 C   0  0  0  0  0  0  0  0  0  0  0
    1.9650    5.4860    4.1730 C   0  0  0  0  0  0  0  0  0  0  0
    1.0380    3.7590    5.7430 C   0  0  0  0  0  0  0  0  0  0  0
    1.2170    5.2620    5.4930 C   0  0  0  0  0  0  0  0  0  0  0
    0.4570    1.2150   -3.1600 H   0  0  0  0  0  0  0  0  0  0  0
    3.9990   -0.0020   -0.7220 H   0  0  0  0  0  0  0  0  0  0  0
    1.2360   -0.2590   -1.7310 H   0  0  0  0  0  0  0  0  0  0  0
   -0.3050    4.0250   -0.0360 H   0  0  0  0  0  0  0  0  0  0  0
    2.1030    3.6290   -3.1680 H   0  0  0  0  0  0  0  0  0  0  0
   -0.4480    0.6540    1.4500 H   0  0  0  0  0  0  0  0  0  0  0
   -0.5530    0.9680    3.1770 H   0  0  0  0  0  0  0  0  0  0  0
    0.7800    2.2100   -0.0860 H   0  0  0  0  0  0  0  0  0  0  0
    1.6200    3.6250    0.5440 H   0  0  0  0  0  0  0  0  0  0  0
    1.9230    0.5260   -5.0160 H   0  0  0  0  0  0  0  0  0  0  0
    2.7770    2.0830   -4.9600 H   0  0  0  0  0  0  0  0  0  0  0
    1.9350    0.6740    3.3500 H   0  0  0  0  0  0  0  0  0  0  0
    1.1080   -0.7490    2.7160 H   0  0  0  0  0  0  0  0  0  0  0
    3.1720    1.8020    0.0890 H   0  0  0  0  0  0  0  0  0  0  0
    3.1650    2.1440    1.8020 H   0  0  0  0  0  0  0  0  0  0  0
    4.1120   -2.4600   -0.8030 H   0  0  0  0  0  0  0  0  0  0  0
    2.4860   -2.5360   -1.4880 H   0  0  0  0  0  0  0  0  0  0  0
    2.0190    2.8960    3.3800 H   0  0  0  0  0  0  0  0  0  0  0
    2.0720    2.5610   -7.3090 H   0  0  0  0  0  0  0  0  0  0  0
    1.4240    0.9150   -7.2310 H   0  0  0  0  0  0  0  0  0  0  0
   -0.7540    3.2910   -3.7250 H   0  0  0  0  0  0  0  0  0  0  0
    0.1250    4.8310   -3.6490 H   0  0  0  0  0  0  0  0  0  0  0
   -0.1480    4.0460   -5.9700 H   0  0  0  0  0  0  0  0  0  0  0
    1.5680    4.1400   -5.5210 H   0  0  0  0  0  0  0  0  0  0  0
    5.7530   -0.8450   -2.1760 H   0  0  0  0  0  0  0  0  0  0  0
    2.3760   -2.7460   -3.8130 H   0  0  0  0  0  0  0  0  0  0  0
    6.6830   -0.5930   -4.3900 H   0  0  0  0  0  0  0  0  0  0  0
    3.3070   -2.4960   -6.0260 H   0  0  0  0  0  0  0  0  0  0  0
   -0.1050    3.4170   -8.0480 H   0  0  0  0  0  0  0  0  0  0  0
   -2.7820    5.9120   -1.5480 H   0  0  0  0  0  0  0  0  0  0  0
   -1.0720    6.0140   -1.0800 H   0  0  0  0  0  0  0  0  0  0  0
   -1.6750    4.5820   -1.9400 H   0  0  0  0  0  0  0  0  0  0  0
   -4.2820    4.2600   -0.4880 H   0  0  0  0  0  0  0  0  0  0  0
   -3.1520    2.9170   -0.7630 H   0  0  0  0  0  0  0  0  0  0  0
   -3.7440    3.2640    0.8750 H   0  0  0  0  0  0  0  0  0  0  0
   -3.4510    6.3590    0.7720 H   0  0  0  0  0  0  0  0  0  0  0
   -2.9240    5.3210    2.1080 H   0  0  0  0  0  0  0  0  0  0  0
   -1.7650    6.4180    1.3290 H   0  0  0  0  0  0  0  0  0  0  0
    0.2300    5.3170    2.9150 H   0  0  0  0  0  0  0  0  0  0  0
    1.7740    5.0140    2.0990 H   0  0  0  0  0  0  0  0  0  0  0
   -0.7210    3.5370    4.5270 H   0  0  0  0  0  0  0  0  0  0  0
    0.1970    2.0430    4.8010 H   0  0  0  0  0  0  0  0  0  0  0
   -0.2940    2.2540  -10.2060 H   0  0  0  0  0  0  0  0  0  0  0
    1.4110    2.4780   -9.7610 H   0  0  0  0  0  0  0  0  0  0  0
    0.6450    0.8840   -9.5700 H   0  0  0  0  0  0  0  0  0  0  0
   -2.0150    1.8690   -8.4540 H   0  0  0  0  0  0  0  0  0  0  0
   -1.0910    0.5440   -7.7080 H   0  0  0  0  0  0  0  0  0  0  0
   -1.5890    1.9460   -6.7330 H   0  0  0  0  0  0  0  0  0  0  0
    2.9630    5.0520    4.2430 H   0  0  0  0  0  0  0  0  0  0  0
    2.0560    6.5570    3.9900 H   0  0  0  0  0  0  0  0  0  0  0
    2.0160    3.2890    5.8480 H   0  0  0  0  0  0  0  0  0  0  0
    0.4750    3.6140    6.6650 H   0  0  0  0  0  0  0  0  0  0  0
    1.7880    5.6990    6.3120 H   0  0  0  0  0  0  0  0  0  0  0
    0.2390    5.7430    5.4450 H   0  0  0  0  0  0  0  0  0  0  0
  1  2  1  0  0  0  0
  1 10  1  0  0  0  0
  1 17  2  0  0  0  0
  2 12  1  0  0  0  0
  2 13  1  0  0  0  0
  2 22  1  0  0  0  0
  3  6  1  0  0  0  0
  3  7  1  0  0  0  0
  3 19  2  0  0  0  0
  4  5  1  0  0  0  0
  4  8  1  0  0  0  0
  4 20  2  0  0  0  0
  5 11  1  1  0  0  0
  5 14  1  0  0  0  0
  5 44  1  0  0  0  0
  6 15  1  0  0  0  0
  6 16  1  0  0  0  0
  7  8  1  6  0  0  0
  7 18  1  0  0  0  0
  7 45  1  0  0  0  0
  8 46  1  0  0  0  0
  9 14  1  0  0  0  0
  9 23  1  0  0  0  0
  9 28  1  0  0  0  0
 10 21  1  0  0  0  0
 10 47  1  0  0  0  0
 11 26  1  0  0  0  0
 11 48  1  0  0  0  0
 12 15  1  0  0  0  0
 12 49  1  0  0  0  0
 12 50  1  0  0  0  0
 13 16  1  0  0  0  0
 13 51  1  0  0  0  0
 13 52  1  0  0  0  0
 14 53  1  0  0  0  0
 14 54  1  0  0  0  0
 15 55  1  0  0  0  0
 15 56  1  0  0  0  0
 16 57  1  0  0  0  0
 16 58  1  0  0  0  0
 18 24  1  0  0  0  0
 18 59  1  0  0  0  0
 18 60  1  0  0  0  0
 21 34  1  0  0  0  0
 21 35  1  0  0  0  0
 21 36  1  0  0  0  0
 22 37  1  0  0  0  0
 22 38  1  0  0  0  0
 22 61  1  0  0  0  0
 23 33  1  0  0  0  0
 23 62  1  0  0  0  0
 23 63  1  0  0  0  0
 24 29  1  0  0  0  0
 24 30  2  0  0  0  0
 25 27  1  0  0  0  0
 25 31  1  0  0  0  0
 25 32  2  0  0  0  0
 26 28  1  0  0  0  0
 26 64  1  0  0  0  0
 26 65  1  0  0  0  0
 28 66  1  0  0  0  0
 28 67  1  0  0  0  0
 29 31  2  0  0  0  0
 29 68  1  0  0  0  0
 30 32  1  0  0  0  0
 30 69  1  0  0  0  0
 31 70  1  0  0  0  0
 32 71  1  0  0  0  0
 33 39  1  0  0  0  0
 33 40  1  0  0  0  0
 33 72  1  0  0  0  0
 34 73  1  0  0  0  0
 34 74  1  0  0  0  0
 34 75  1  0  0  0  0
 35 76  1  0  0  0  0
 35 77  1  0  0  0  0
 35 78  1  0  0  0  0
 36 79  1  0  0  0  0
 36 80  1  0  0  0  0
 36 81  1  0  0  0  0
 37 41  1  0  0  0  0
 37 82  1  0  0  0  0
 37 83  1  0  0  0  0
 38 42  1  0  0  0  0
 38 84  1  0  0  0  0
 38 85  1  0  0  0  0
 39 86  1  0  0  0  0
 39 87  1  0  0  0  0
 39 88  1  0  0  0  0
 40 89  1  0  0  0  0
 40 90  1  0  0  0  0
 40 91  1  0  0  0  0
 41 43  1  0  0  0  0
 41 92  1  0  0  0  0
 41 93  1  0  0  0  0
 42 43  1  0  0  0  0
 42 94  1  0  0  0  0
 42 95  1  0  0  0  0
 43 96  1  0  0  0  0
 43 97  1  0  0  0  0
M  END
> <From>
www.bindingDB.org

> <BindingDB Reactant_set_id>
50484634

> <Ligand InChI>
InChI=1S/C26H29ClN4O4S/c1-15(2)36(33,34)22-9-7-6-8-19(22)29-24-18(27)14-28-25(31-24)30-20-13-17-16(12-21(20)35-5)10-11-23(32)26(17,3)4/h6-9,12-15H,10-11H2,1-5H3,(H2,28,29,30,31)

> <Ligand InChI Key>
XEOPKTLMBFFTMC-UHFFFAOYSA-N

> <BindingDB MonomerID>
50157316

> <BindingDB Ligand Name>
CHEMBL3787367

> <Target Name Assigned by Curator or DataSource>
ALK tyrosine kinase receptor

> <Target Source Organism According to Curator or DataSource>
Homo sapiens

> <Ki (nM)>


> <IC50 (nM)>
 1376

> <Kd (nM)>


> <EC50 (nM)>


> <kon (M-1-s-1)>


> <koff (s-1)>


> <pH>


> <Temp C>


> <Curation/DataSource>
ChEMBL

> <Article DOI>
10.1016/j.bmcl.2016.02.052

> <PMID>
26923695

> <PubChem AID>


> <Patent Number>


> <Authors>
Song, D; Lee, M; Park, CH; Ahn, S; Yun, CS; Lee, CO; Kim, HR; Hwang, JY

> <Institution>
Chungbuk National University

> <Link to Ligand in BindingDB>
http://www.bindingdb.org/bind/chemsearch/marvin/MolStructure.jsp?monomerid=50157316

> <Link to Ligand-Target Pair in BindingDB>
http://www.bindingdb.org/jsp/dbsearch/PrimarySearch_ki.jsp?energyterm=kJ/mole&tag=pol&polymerid=5809&target=ALK+tyrosine+kinase+receptor&column=ki&startPg=0&Increment=50&submit=Search

> <Link to Ligand-Target Pair in BindingDB>
http://www.bindingdb.org/jsp/dbsearch/PrimarySearch_ki.jsp?energyterm=kJ/mole&tag=r21&monomerid=50157316&enzyme=ALK+tyrosine+kinase+receptor&column=ki&startPg=0&Increment=50&submit=Search

> <Ligand HET ID in PDB>


> <PDB ID(s) for Ligand-Target Complex>


> <PubChem CID>
127031588

> <PubChem SID>
104044318

> <ChEBI ID of Ligand>


> <ChEMBL ID of Ligand>
CHEMBL3787367

> <DrugBank ID of Ligand>


> <IUPHAR_GRAC ID of Ligand>


> <KEGG ID of Ligand>


> <ZINC ID of Ligand>
ZINC28340287

> <Number of Protein Chains in Target (>1 implies a multichain complex)>
1

> <BindingDB Target Chain Sequence>
MGAIGLLWLLPLLLSTAAVGSGMGTGQRAGSPAAGPPLQPREPLSYSRLQRKSLAVDFVVPSLFRVYARDLLLPPSSSELKAGRPEARGSLALDCAPLLRLLGPAPGVSWTAGSPAPAEARTLSRVLKGGSVRKLRRAKQLVLELGEEAILEGCVGPPGEAAVGLLQFNLSELFSWWIRQGEGRLRIRLMPEKKASEVGREGRLSAAIRASQPRLLFQIFGTGHSSLESPTNMPSPSPDYFTWNLTWIMKDSFPFLSHRSRYGLECSFDFPCELEYSPPLHDLRNQSWSWRRIPSEEASQMDLLDGPGAERSKEMPRGSFLLLNTSADSKHTILSPWMRSSSEHCTLAVSVHRHLQPSGRYIAQLLPHNEAAREILLMPTPGKHGWTVLQGRIGRPDNPFRVALEYISSGNRSLSAVDFFALKNCSEGTSPGSKMALQSSFTCWNGTVLQLGQACDFHQDCAQGEDESQMCRKLPVGFYCNFEDGFCGWTQGTLSPHTPQWQVRTLKDARFQDHQDHALLLSTTDVPASESATVTSATFPAPIKSSPCELRMSWLIRGVLRGNVSLVLVENKTGKEQGRMVWHVAAYEGLSLWQWMVLPLLDVSDRFWLQMVAWWGQGSRAIVAFDNISISLDCYLTISGEDKILQNTAPKSRNLFERNPNKELKPGENSPRQTPIFDPTVHWLFTTCGASGPHGPTQAQCNNAYQNSNLSVEVGSEGPLKGIQIWKVPATDTYSISGYGAAGGKGGKNTMMRSHGVSVLGIFNLEKDDMLYILVGQQGEDACPSTNQLIQKVCIGENNVIEEEIRVNRSVHEWAGGGGGGGGATYVFKMKDGVPVPLIIAAGGGGRAYGAKTDTFHPERLENNSSVLGLNGNSGAAGGGGGWNDNTSLLWAGKSLQEGATGGHSCPQAMKKWGWETRGGFGGGGGGCSSGGGGGGYIGGNAASNNDPEMDGEDGVSFISPLGILYTPALKVMEGHGEVNIKHYLNCSHCEVDECHMDPESHKVICFCDHGTVLAEDGVSCIVSPTPEPHLPLSLILSVVTSALVAALVLAFSGIMIVYRRKHQELQAMQMELQSPEYKLSKLRTSTIMTDYNPNYCFAGKTSSISDLKEVPRKNITLIRGLGHGAFGEVYEGQVSGMPNDPSPLQVAVKTLPEVCSEQDELDFLMEALIISKFNHQNIVRCIGVSLQSLPRFILLELMAGGDLKSFLRETRPRPSQPSSLAMLDLLHVARDIACGCQYLEENHFIHRDIAARNCLLTCPGPGRVAKIGDFGMARDIYRASYYRKGGCAMLPVKWMPPEAFMEGIFTSKTDTWSFGVLLWEIFSLGYMPYPSKSNQEVLEFVTSGGRMDPPKNCPGPVYRIMTQCWQHQPEDRPNFAIILERIEYCTQDPDVINTALPIEYGPLVEEEEKVPVRPKDPEGVPPLLVSQQAKREEERSPAAPPPLPTTSSGKAAKKPTAAEISVRVPRGPAVEGGHVNMAFSQSNPPSELHKVHGSRNKPTSLWNPTYGSWFTEKPTKKNNPIAKKEPHDRGNLGLEGSCTVPPNVATGRLPGASLLLEPSSLTANMKEVPLFRLRHFPCGNVNYGYQQQGLPLEAATAPGAGHYEDTILKSKNSMNQPGP

> <PDB ID(s) of Target Chain>
2XB7,2XBA,3AOX,5FTO,5FTQ,6E0R,6EBW,6EDL,6MX8

> <UniProt (SwissProt) Recommended Name of Target Chain>
ALK tyrosine kinase receptor

> <UniProt (SwissProt) Entry Name of Target Chain>
ALK_HUMAN

> <UniProt (SwissProt) Primary ID of Target Chain>
Q9UM73

> <UniProt (SwissProt) Secondary ID(s) of Target Chain>
Q4ZFX9,Q53QQ6,Q53RZ4,Q59FI3,Q9Y4K6

> <UniProt (SwissProt) Alternative ID(s) of Target Chain>


> <UniProt (TrEMBL) Submitted Name of Target Chain>


> <UniProt (TrEMBL) Entry Name of Target Chain>


> <UniProt (TrEMBL) Primary ID of Target Chain>


> <UniProt (TrEMBL) Secondary ID(s) of Target Chain>


> <UniProt (TrEMBL) Alternative ID(s) of Target Chain>


$$$$
BindingDB_50157317

Vconf v2.0 Academic SN VC001-00000245
103106  0  0  0  0  0  0  0  0999 V2000
    1.4870    2.7770    0.2860 N   0  0  0  0  0  0  0  0  0  0  0
    2.8360    2.2870    0.2420 C   0  0  2  0  0  0  0  0  0  0  0
    0.6840    2.7690   -0.8150 C   0  0  0  0  0  0  0  0  0  0  0
    2.9380    0.9980    0.9570 C   0  0  0  0  0  0  0  0  0  0  0
    6.4360   -5.7870    1.4350 C   0  0  0  0  0  0  0  0  0  0  0
    6.3460   -4.7930    2.5360 C   0  0  1  0  0  0  0  0  0  0  0
    5.2570   -0.7600    2.8480 C   0  0  0  0  0  0  0  0  0  0  0
    5.6580   -2.0230    3.2010 N   0  0  0  0  0  0  0  0  0  0  0
    3.8400   -0.3280    2.8280 C   0  0  2  0  0  0  0  0  0  0  0
    3.6990    0.8740    2.0680 N   0  0  0  0  0  0  0  0  0  0  0
    5.5530   -6.8100    1.3890 N   0  0  0  0  0  0  0  0  0  0  0
   -0.6030    3.1950   -0.7230 O   0  0  0  0  0  0  0  0  0  0  0
    1.0020    3.2480    1.5470 C   0  0  0  0  0  0  0  0  0  0  0
    3.7660    3.3770    0.8170 C   0  0  0  0  0  0  0  0  0  0  0
    3.3330    3.7650    2.1760 N   0  0  0  0  0  0  0  0  0  0  0
    7.2520   -3.5680    2.2150 C   0  0  0  0  0  0  0  0  0  0  0
    4.8990   -4.2290    2.5650 C   0  0  0  0  0  0  0  0  0  0  0
    1.1020    2.3410   -1.9140 O   0  0  0  0  0  0  0  0  0  0  0
    7.0410   -2.3930    3.1860 C   0  0  0  0  0  0  0  0  0  0  0
    4.7520   -3.0700    3.5650 C   0  0  0  0  0  0  0  0  0  0  0
    2.2840    0.0210    0.5260 O   0  0  0  0  0  0  0  0  0  0  0
    7.3270   -5.6850    0.5620 O   0  0  0  0  0  0  0  0  0  0  0
    3.3430   -0.0730    4.2730 C   0  0  0  0  0  0  0  0  0  0  0
    6.1260    0.0860    2.5300 O   0  0  0  0  0  0  0  0  0  0  0
    5.5360   -7.8570    0.4240 C   0  0  0  0  0  0  0  0  0  0  0
   -1.6900    2.2700   -0.8550 C   0  0  0  0  0  0  0  0  0  0  0
    6.7590   -5.4430    3.9020 C   0  0  0  0  0  0  0  0  0  0  0
    1.9600    4.3030    2.1190 C   0  0  0  0  0  0  0  0  0  0  0
    1.9330    0.3690    4.3310 C   0  0  0  0  0  0  0  0  0  0  0
   -0.7600    1.2190    4.4120 C   0  0  0  0  0  0  0  0  0  0  0
   -2.0000    1.6160    4.4360 F   0  0  0  0  0  0  0  0  0  0  0
    0.9070   -0.4580    3.8290 C   0  0  0  0  0  0  0  0  0  0  0
    1.5950    1.6210    4.8850 C   0  0  0  0  0  0  0  0  0  0  0
   -0.4320   -0.0330    3.8620 C   0  0  0  0  0  0  0  0  0  0  0
    0.2550    2.0440    4.9280 C   0  0  0  0  0  0  0  0  0  0  0
    4.2490    4.7750    2.7320 C   0  0  0  0  0  0  0  0  0  0  0
    5.2830   -7.3130   -0.9950 C   0  0  0  0  0  0  0  0  0  0  0
    6.8410   -8.6750    0.4630 C   0  0  0  0  0  0  0  0  0  0  0
    4.3710   -8.7860    0.8060 C   0  0  0  0  0  0  0  0  0  0  0
   -1.6130    1.1720    0.2250 C   0  0  0  0  0  0  0  0  0  0  0
   -2.9740    3.0850   -0.6360 C   0  0  0  0  0  0  0  0  0  0  0
   -1.7470    1.6340   -2.2560 C   0  0  0  0  0  0  0  0  0  0  0
    5.7540   -6.4870    4.4480 C   0  0  0  0  0  0  0  0  0  0  0
    8.1620   -6.0980    3.8560 C   0  0  0  0  0  0  0  0  0  0  0
    6.1740   -6.9750    5.8430 C   0  0  0  0  0  0  0  0  0  0  0
    8.5850   -6.5960    5.2470 C   0  0  0  0  0  0  0  0  0  0  0
    7.5700   -7.6090    5.7890 C   0  0  0  0  0  0  0  0  0  0  0
    3.1600    2.1040   -0.7840 H   0  0  0  0  0  0  0  0  0  0  0
    3.2490   -1.1220    2.3700 H   0  0  0  0  0  0  0  0  0  0  0
    4.1850    1.6570    2.3710 H   0  0  0  0  0  0  0  0  0  0  0
    4.8790   -6.8370    2.0840 H   0  0  0  0  0  0  0  0  0  0  0
    0.0050    3.6890    1.4810 H   0  0  0  0  0  0  0  0  0  0  0
    0.9530    2.4070    2.2350 H   0  0  0  0  0  0  0  0  0  0  0
    4.7910    3.0010    0.8470 H   0  0  0  0  0  0  0  0  0  0  0
    3.7380    4.2470    0.1580 H   0  0  0  0  0  0  0  0  0  0  0
    7.0180   -3.2030    1.2120 H   0  0  0  0  0  0  0  0  0  0  0
    8.3030   -3.8510    2.2260 H   0  0  0  0  0  0  0  0  0  0  0
    4.6400   -3.8460    1.5760 H   0  0  0  0  0  0  0  0  0  0  0
    4.1810   -5.0090    2.8150 H   0  0  0  0  0  0  0  0  0  0  0
    7.3510   -2.6780    4.1910 H   0  0  0  0  0  0  0  0  0  0  0
    7.6890   -1.5760    2.8640 H   0  0  0  0  0  0  0  0  0  0  0
    3.7100   -2.7590    3.5620 H   0  0  0  0  0  0  0  0  0  0  0
    4.9870   -3.4190    4.5710 H   0  0  0  0  0  0  0  0  0  0  0
    3.4360   -0.9880    4.8610 H   0  0  0  0  0  0  0  0  0  0  0
    3.9870    0.6810    4.7320 H   0  0  0  0  0  0  0  0  0  0  0
    6.8080   -4.6540    4.6500 H   0  0  0  0  0  0  0  0  0  0  0
    1.9290    5.1940    1.4900 H   0  0  0  0  0  0  0  0  0  0  0
    1.6300    4.5670    3.1250 H   0  0  0  0  0  0  0  0  0  0  0
    1.1350   -1.3680    3.4270 H   0  0  0  0  0  0  0  0  0  0  0
    2.3260    2.2330    5.2500 H   0  0  0  0  0  0  0  0  0  0  0
   -1.1650   -0.6360    3.4850 H   0  0  0  0  0  0  0  0  0  0  0
    0.0240    2.9550    5.3240 H   0  0  0  0  0  0  0  0  0  0  0
    3.9290    5.0440    3.7390 H   0  0  0  0  0  0  0  0  0  0  0
    5.2580    4.3650    2.7840 H   0  0  0  0  0  0  0  0  0  0  0
    4.2580    5.6690    2.1060 H   0  0  0  0  0  0  0  0  0  0  0
    5.1660   -8.1430   -1.6930 H   0  0  0  0  0  0  0  0  0  0  0
    4.3740   -6.7110   -1.0030 H   0  0  0  0  0  0  0  0  0  0  0
    6.1210   -6.6980   -1.3220 H   0  0  0  0  0  0  0  0  0  0  0
    6.7540   -9.5410   -0.1940 H   0  0  0  0  0  0  0  0  0  0  0
    7.6820   -8.0670    0.1300 H   0  0  0  0  0  0  0  0  0  0  0
    7.0310   -9.0180    1.4810 H   0  0  0  0  0  0  0  0  0  0  0
    4.3090   -9.6150    0.0990 H   0  0  0  0  0  0  0  0  0  0  0
    4.5280   -9.1860    1.8090 H   0  0  0  0  0  0  0  0  0  0  0
    3.4310   -8.2320    0.7860 H   0  0  0  0  0  0  0  0  0  0  0
   -2.4970    0.5360    0.1710 H   0  0  0  0  0  0  0  0  0  0  0
   -0.7240    0.5580    0.0730 H   0  0  0  0  0  0  0  0  0  0  0
   -1.5630    1.6310    1.2130 H   0  0  0  0  0  0  0  0  0  0  0
   -3.8470    2.4360   -0.7130 H   0  0  0  0  0  0  0  0  0  0  0
   -2.9550    3.5430    0.3540 H   0  0  0  0  0  0  0  0  0  0  0
   -3.0440    3.8700   -1.3900 H   0  0  0  0  0  0  0  0  0  0  0
   -2.6700    1.0660   -2.3680 H   0  0  0  0  0  0  0  0  0  0  0
   -1.7140    2.4170   -3.0150 H   0  0  0  0  0  0  0  0  0  0  0
   -0.9010    0.9610   -2.4000 H   0  0  0  0  0  0  0  0  0  0  0
    5.7030   -7.3490    3.7850 H   0  0  0  0  0  0  0  0  0  0  0
    4.7640   -6.0440    4.5410 H   0  0  0  0  0  0  0  0  0  0  0
    8.1570   -6.9430    3.1660 H   0  0  0  0  0  0  0  0  0  0  0
    8.9040   -5.3770    3.5220 H   0  0  0  0  0  0  0  0  0  0  0
    6.1830   -6.1320    6.5360 H   0  0  0  0  0  0  0  0  0  0  0
    5.4560   -7.7160    6.1960 H   0  0  0  0  0  0  0  0  0  0  0
    9.5640   -7.0710    5.1760 H   0  0  0  0  0  0  0  0  0  0  0
    8.6520   -5.7480    5.9300 H   0  0  0  0  0  0  0  0  0  0  0
    7.8660   -7.9160    6.7930 H   0  0  0  0  0  0  0  0  0  0  0
    7.5470   -8.4870    5.1420 H   0  0  0  0  0  0  0  0  0  0  0
  2  1  1  1  0  0  0
  1  3  1  0  0  0  0
  1 13  1  0  0  0  0
  2  4  1  0  0  0  0
  2 14  1  0  0  0  0
  2 48  1  0  0  0  0
  3 12  1  0  0  0  0
  3 18  2  0  0  0  0
  4 10  1  0  0  0  0
  4 21  2  0  0  0  0
  5  6  1  0  0  0  0
  5 11  1  0  0  0  0
  5 22  2  0  0  0  0
  6 16  1  0  0  0  0
  6 17  1  0  0  0  0
  6 27  1  0  0  0  0
  7  8  1  0  0  0  0
  7  9  1  0  0  0  0
  7 24  2  0  0  0  0
  8 19  1  0  0  0  0
  8 20  1  0  0  0  0
  9 10  1  6  0  0  0
  9 23  1  0  0  0  0
  9 49  1  0  0  0  0
 10 50  1  0  0  0  0
 11 25  1  0  0  0  0
 11 51  1  0  0  0  0
 12 26  1  0  0  0  0
 13 28  1  0  0  0  0
 13 52  1  0  0  0  0
 13 53  1  0  0  0  0
 14 15  1  0  0  0  0
 14 54  1  0  0  0  0
 14 55  1  0  0  0  0
 15 28  1  0  0  0  0
 15 36  1  0  0  0  0
 16 19  1  0  0  0  0
 16 56  1  0  0  0  0
 16 57  1  0  0  0  0
 17 20  1  0  0  0  0
 17 58  1  0  0  0  0
 17 59  1  0  0  0  0
 19 60  1  0  0  0  0
 19 61  1  0  0  0  0
 20 62  1  0  0  0  0
 20 63  1  0  0  0  0
 23 29  1  0  0  0  0
 23 64  1  0  0  0  0
 23 65  1  0  0  0  0
 25 37  1  0  0  0  0
 25 38  1  0  0  0  0
 25 39  1  0  0  0  0
 26 40  1  0  0  0  0
 26 41  1  0  0  0  0
 26 42  1  0  0  0  0
 27 43  1  0  0  0  0
 27 44  1  0  0  0  0
 27 66  1  0  0  0  0
 28 67  1  0  0  0  0
 28 68  1  0  0  0  0
 29 32  1  0  0  0  0
 29 33  2  0  0  0  0
 30 31  1  0  0  0  0
 30 34  1  0  0  0  0
 30 35  2  0  0  0  0
 32 34  2  0  0  0  0
 32 69  1  0  0  0  0
 33 35  1  0  0  0  0
 33 70  1  0  0  0  0
 34 71  1  0  0  0  0
 35 72  1  0  0  0  0
 36 73  1  0  0  0  0
 36 74  1  0  0  0  0
 36 75  1  0  0  0  0
 37 76  1  0  0  0  0
 37 77  1  0  0  0  0
 37 78  1  0  0  0  0
 38 79  1  0  0  0  0
 38 80  1  0  0  0  0
 38 81  1  0  0  0  0
 39 82  1  0  0  0  0
 39 83  1  0  0  0  0
 39 84  1  0  0  0  0
 40 85  1  0  0  0  0
 40 86  1  0  0  0  0
 40 87  1  0  0  0  0
 41 88  1  0  0  0  0
 41 89  1  0  0  0  0
 41 90  1  0  0  0  0
 42 91  1  0  0  0  0
 42 92  1  0  0  0  0
 42 93  1  0  0  0  0
 43 45  1  0  0  0  0
 43 94  1  0  0  0  0
 43 95  1  0  0  0  0
 44 46  1  0  0  0  0
 44 96  1  0  0  0  0
 44 97  1  0  0  0  0
 45 47  1  0  0  0  0
 45 98  1  0  0  0  0
 45 99  1  0  0  0  0
 46 47  1  0  0  0  0
 46100  1  0  0  0  0
 46101  1  0  0  0  0
 47102  1  0  0  0  0
 47103  1  0  0  0  0
M  END
> <From>
www.bindingDB.org

> <BindingDB Reactant_set_id>
50484639

> <Ligand InChI>
InChI=1S/C26H29ClN4O4S/c1-15(2)36(33,34)22-9-7-6-8-19(22)29-24-18(27)14-28-25(31-24)30-20-12-16-10-11-23(32)26(3,4)17(16)13-21(20)35-5/h6-9,12-15H,10-11H2,1-5H3,(H2,28,29,30,31)

> <Ligand InChI Key>
KEXUJWAAERQROS-UHFFFAOYSA-N

> <BindingDB MonomerID>
50157317

> <BindingDB Ligand Name>
CHEMBL3787539

> <Target Name Assigned by Curator or DataSource>
ALK tyrosine kinase receptor

> <Target Source Organism According to Curator or DataSource>
Homo sapiens

> <Ki (nM)>


> <IC50 (nM)>
 207

> <Kd (nM)>


> <EC50 (nM)>


> <kon (M-1-s-1)>


> <koff (s-1)>


> <pH>


> <Temp C>


> <Curation/DataSource>
ChEMBL

> <Article DOI>
10.1016/j.bmcl.2016.02.052

> <PMID>
26923695

> <PubChem AID>


> <Patent Number>


> <Authors>
Song, D; Lee, M; Park, CH; Ahn, S; Yun, CS; Lee, CO; Kim, HR; Hwang, JY

> <Institution>
Chungbuk National University

> <Link to Ligand in BindingDB>
http://www.bindingdb.org/bind/chemsearch/marvin/MolStructure.jsp?monomerid=50157317

> <Link to Ligand-Target Pair in BindingDB>
http://www.bindingdb.org/jsp/dbsearch/PrimarySearch_ki.jsp?energyterm=kJ/mole&tag=pol&polymerid=5809&target=ALK+tyrosine+kinase+receptor&column=ki&startPg=0&Increment=50&submit=Search

> <Link to Ligand-Target Pair in BindingDB>
http://www.bindingdb.org/jsp/dbsearch/PrimarySearch_ki.jsp?energyterm=kJ/mole&tag=r21&monomerid=50157317&enzyme=ALK+tyrosine+kinase+receptor&column=ki&startPg=0&Increment=50&submit=Search

> <Ligand HET ID in PDB>


> <PDB ID(s) for Ligand-Target Complex>


> <PubChem CID>
127031589

> <PubChem SID>
104044319

> <ChEBI ID of Ligand>


> <ChEMBL ID of Ligand>
CHEMBL3787539

> <DrugBank ID of Ligand>


> <IUPHAR_GRAC ID of Ligand>


> <KEGG ID of Ligand>


> <ZINC ID of Ligand>
ZINC28349033

> <Number of Protein Chains in Target (>1 implies a multichain complex)>
1

> <BindingDB Target Chain Sequence>
MGAIGLLWLLPLLLSTAAVGSGMGTGQRAGSPAAGPPLQPREPLSYSRLQRKSLAVDFVVPSLFRVYARDLLLPPSSSELKAGRPEARGSLALDCAPLLRLLGPAPGVSWTAGSPAPAEARTLSRVLKGGSVRKLRRAKQLVLELGEEAILEGCVGPPGEAAVGLLQFNLSELFSWWIRQGEGRLRIRLMPEKKASEVGREGRLSAAIRASQPRLLFQIFGTGHSSLESPTNMPSPSPDYFTWNLTWIMKDSFPFLSHRSRYGLECSFDFPCELEYSPPLHDLRNQSWSWRRIPSEEASQMDLLDGPGAERSKEMPRGSFLLLNTSADSKHTILSPWMRSSSEHCTLAVSVHRHLQPSGRYIAQLLPHNEAAREILLMPTPGKHGWTVLQGRIGRPDNPFRVALEYISSGNRSLSAVDFFALKNCSEGTSPGSKMALQSSFTCWNGTVLQLGQACDFHQDCAQGEDESQMCRKLPVGFYCNFEDGFCGWTQGTLSPHTPQWQVRTLKDARFQDHQDHALLLSTTDVPASESATVTSATFPAPIKSSPCELRMSWLIRGVLRGNVSLVLVENKTGKEQGRMVWHVAAYEGLSLWQWMVLPLLDVSDRFWLQMVAWWGQGSRAIVAFDNISISLDCYLTISGEDKILQNTAPKSRNLFERNPNKELKPGENSPRQTPIFDPTVHWLFTTCGASGPHGPTQAQCNNAYQNSNLSVEVGSEGPLKGIQIWKVPATDTYSISGYGAAGGKGGKNTMMRSHGVSVLGIFNLEKDDMLYILVGQQGEDACPSTNQLIQKVCIGENNVIEEEIRVNRSVHEWAGGGGGGGGATYVFKMKDGVPVPLIIAAGGGGRAYGAKTDTFHPERLENNSSVLGLNGNSGAAGGGGGWNDNTSLLWAGKSLQEGATGGHSCPQAMKKWGWETRGGFGGGGGGCSSGGGGGGYIGGNAASNNDPEMDGEDGVSFISPLGILYTPALKVMEGHGEVNIKHYLNCSHCEVDECHMDPESHKVICFCDHGTVLAEDGVSCIVSPTPEPHLPLSLILSVVTSALVAALVLAFSGIMIVYRRKHQELQAMQMELQSPEYKLSKLRTSTIMTDYNPNYCFAGKTSSISDLKEVPRKNITLIRGLGHGAFGEVYEGQVSGMPNDPSPLQVAVKTLPEVCSEQDELDFLMEALIISKFNHQNIVRCIGVSLQSLPRFILLELMAGGDLKSFLRETRPRPSQPSSLAMLDLLHVARDIACGCQYLEENHFIHRDIAARNCLLTCPGPGRVAKIGDFGMARDIYRASYYRKGGCAMLPVKWMPPEAFMEGIFTSKTDTWSFGVLLWEIFSLGYMPYPSKSNQEVLEFVTSGGRMDPPKNCPGPVYRIMTQCWQHQPEDRPNFAIILERIEYCTQDPDVINTALPIEYGPLVEEEEKVPVRPKDPEGVPPLLVSQQAKREEERSPAAPPPLPTTSSGKAAKKPTAAEISVRVPRGPAVEGGHVNMAFSQSNPPSELHKVHGSRNKPTSLWNPTYGSWFTEKPTKKNNPIAKKEPHDRGNLGLEGSCTVPPNVATGRLPGASLLLEPSSLTANMKEVPLFRLRHFPCGNVNYGYQQQGLPLEAATAPGAGHYEDTILKSKNSMNQPGP

> <PDB ID(s) of Target Chain>
2XB7,2XBA,3AOX,5FTO,5FTQ,6E0R,6EBW,6EDL,6MX8

> <UniProt (SwissProt) Recommended Name of Target Chain>
ALK tyrosine kinase receptor

> <UniProt (SwissProt) Entry Name of Target Chain>
ALK_HUMAN

> <UniProt (SwissProt) Primary ID of Target Chain>
Q9UM73

> <UniProt (SwissProt) Secondary ID(s) of Target Chain>
Q4ZFX9,Q53QQ6,Q53RZ4,Q59FI3,Q9Y4K6

> <UniProt (SwissProt) Alternative ID(s) of Target Chain>


> <UniProt (TrEMBL) Submitted Name of Target Chain>


> <UniProt (TrEMBL) Entry Name of Target Chain>


> <UniProt (TrEMBL) Primary ID of Target Chain>


> <UniProt (TrEMBL) Secondary ID(s) of Target Chain>


> <UniProt (TrEMBL) Alternative ID(s) of Target Chain>


$$$$
BindingDB_50157318

Vconf v2.0 Academic SN VC001-00000245
 95 98  0  0  0  0  0  0  0  0999 V2000
    2.9150    2.5030    2.0240 N   0  0  0  0  0  0  0  0  0  0  0
   -1.9790    0.1220    3.5760 C   0  0  0  0  0  0  0  0  0  0  0
   -1.6140   -1.1360    2.8760 C   0  0  1  0  0  0  0  0  0  0  0
    0.0360   -2.1640   -0.8430 C   0  0  0  0  0  0  0  0  0  0  0
    3.4930    0.7670    0.4560 C   0  0  2  0  0  0  0  0  0  0  0
    3.1320   -0.5650   -0.0480 C   0  0  0  0  0  0  0  0  0  0  0
    3.2860    2.7560    3.3180 C   0  0  0  0  0  0  0  0  0  0  0
   -0.4910   -2.2730    0.4190 N   0  0  0  0  0  0  0  0  0  0  0
    1.4900   -2.0420   -1.1070 C   0  0  2  0  0  0  0  0  0  0  0
    1.9310   -0.7700   -0.6360 N   0  0  0  0  0  0  0  0  0  0  0
    2.5100    1.2160    1.5540 C   0  0  0  0  0  0  0  0  0  0  0
   -1.1080    0.6990    4.4370 N   0  0  0  0  0  0  0  0  0  0  0
    3.4950    1.7550   -0.6390 N   0  0  0  0  0  0  0  0  0  0  0
   -2.3620   -1.1900    1.5130 C   0  0  0  0  0  0  0  0  0  0  0
   -0.1060   -1.1010    2.4990 C   0  0  0  0  0  0  0  0  0  0  0
    0.3050   -2.2850    1.6070 C   0  0  0  0  0  0  0  0  0  0  0
   -1.9030   -2.3640    0.6320 C   0  0  0  0  0  0  0  0  0  0  0
   -3.1180    0.6140    3.4080 O   0  0  0  0  0  0  0  0  0  0  0
    1.8750   -2.1480   -2.6050 C   0  0  0  0  0  0  0  0  0  0  0
   -0.7440   -2.1440   -1.8230 O   0  0  0  0  0  0  0  0  0  0  0
    3.5710    3.9300    3.6490 O   0  0  0  0  0  0  0  0  0  0  0
    3.9290   -1.5160    0.1130 O   0  0  0  0  0  0  0  0  0  0  0
   -1.3650    1.8600    5.2210 C   0  0  0  0  0  0  0  0  0  0  0
   -1.9630   -2.3700    3.7770 C   0  0  0  0  0  0  0  0  0  0  0
    3.3730    1.6940    4.3450 C   0  0  1  0  0  0  0  0  0  0  0
    1.6740   -3.5020   -3.1660 C   0  0  0  0  0  0  0  0  0  0  0
    2.9340    3.5190    1.0170 C   0  0  0  0  0  0  0  0  0  0  0
    1.2950   -6.0930   -4.2270 C   0  0  0  0  0  0  0  0  0  0  0
    3.8720    3.0820   -0.1210 C   0  0  0  0  0  0  0  0  0  0  0
    4.4370    0.7460    3.9950 N   0  0  0  0  0  0  0  0  0  0  0
    1.1170   -7.2890   -4.7130 F   0  0  0  0  0  0  0  0  0  0  0
    0.7190   -3.7280   -4.1790 C   0  0  0  0  0  0  0  0  0  0  0
    2.4430   -4.5870   -2.6970 C   0  0  0  0  0  0  0  0  0  0  0
    0.5280   -5.0170   -4.7050 C   0  0  0  0  0  0  0  0  0  0  0
    2.2550   -5.8760   -3.2220 C   0  0  0  0  0  0  0  0  0  0  0
   -1.6620    3.0900    4.3410 C   0  0  0  0  0  0  0  0  0  0  0
   -2.5180    1.6150    6.2140 C   0  0  0  0  0  0  0  0  0  0  0
   -0.0860    2.1460    6.0260 C   0  0  0  0  0  0  0  0  0  0  0
   -1.1490   -2.4130    5.0940 C   0  0  0  0  0  0  0  0  0  0  0
   -3.4690   -2.4570    4.1270 C   0  0  0  0  0  0  0  0  0  0  0
    3.6750    2.2340    5.7540 C   0  0  0  0  0  0  0  0  0  0  0
   -3.7810   -3.7240    4.9370 C   0  0  0  0  0  0  0  0  0  0  0
   -1.4630   -3.6830    5.8990 C   0  0  0  0  0  0  0  0  0  0  0
   -2.9590   -3.7500    6.2320 C   0  0  0  0  0  0  0  0  0  0  0
    4.4960    0.7150    0.8850 H   0  0  0  0  0  0  0  0  0  0  0
    1.9980   -2.8450   -0.5680 H   0  0  0  0  0  0  0  0  0  0  0
    1.3410   -0.0100   -0.7510 H   0  0  0  0  0  0  0  0  0  0  0
    1.5090    1.3070    1.1300 H   0  0  0  0  0  0  0  0  0  0  0
    2.4770    0.4630    2.3410 H   0  0  0  0  0  0  0  0  0  0  0
   -0.2440    0.2740    4.5410 H   0  0  0  0  0  0  0  0  0  0  0
    2.5350    1.8310   -0.9770 H   0  0  0  0  0  0  0  0  0  0  0
   -2.1640   -0.2690    0.9600 H   0  0  0  0  0  0  0  0  0  0  0
   -3.4380   -1.2580    1.6620 H   0  0  0  0  0  0  0  0  0  0  0
    0.0950   -0.1850    1.9420 H   0  0  0  0  0  0  0  0  0  0  0
    0.5240   -1.0950    3.3870 H   0  0  0  0  0  0  0  0  0  0  0
    1.3710   -2.2030    1.4080 H   0  0  0  0  0  0  0  0  0  0  0
    0.1440   -3.2220    2.1400 H   0  0  0  0  0  0  0  0  0  0  0
   -2.1360   -3.3080    1.1230 H   0  0  0  0  0  0  0  0  0  0  0
   -2.4710   -2.3270   -0.2990 H   0  0  0  0  0  0  0  0  0  0  0
    1.3000   -1.4110   -3.1700 H   0  0  0  0  0  0  0  0  0  0  0
    2.9310   -1.8940   -2.7140 H   0  0  0  0  0  0  0  0  0  0  0
   -1.7160   -3.2770    3.2280 H   0  0  0  0  0  0  0  0  0  0  0
    2.4210    1.1650    4.3880 H   0  0  0  0  0  0  0  0  0  0  0
    1.9260    3.6460    0.6190 H   0  0  0  0  0  0  0  0  0  0  0
    3.2750    4.4830    1.3970 H   0  0  0  0  0  0  0  0  0  0  0
    3.8130    3.8090   -0.9310 H   0  0  0  0  0  0  0  0  0  0  0
    4.8980    3.0510    0.2480 H   0  0  0  0  0  0  0  0  0  0  0
    4.3830   -0.0240    4.6650 H   0  0  0  0  0  0  0  0  0  0  0
    4.2130    0.3600    3.0760 H   0  0  0  0  0  0  0  0  0  0  0
    0.1540   -2.9530   -4.5290 H   0  0  0  0  0  0  0  0  0  0  0
    3.1440   -4.4380   -1.9690 H   0  0  0  0  0  0  0  0  0  0  0
   -0.1710   -5.1680   -5.4340 H   0  0  0  0  0  0  0  0  0  0  0
    2.8160   -6.6540   -2.8720 H   0  0  0  0  0  0  0  0  0  0  0
   -1.7270    3.9820    4.9650 H   0  0  0  0  0  0  0  0  0  0  0
   -0.8620    3.2240    3.6110 H   0  0  0  0  0  0  0  0  0  0  0
   -2.6070    2.9630    3.8140 H   0  0  0  0  0  0  0  0  0  0  0
   -2.6190    2.4720    6.8810 H   0  0  0  0  0  0  0  0  0  0  0
   -3.4570    1.4750    5.6790 H   0  0  0  0  0  0  0  0  0  0  0
   -2.3100    0.7240    6.8080 H   0  0  0  0  0  0  0  0  0  0  0
   -0.2460    2.9970    6.6890 H   0  0  0  0  0  0  0  0  0  0  0
    0.1840    1.2750    6.6250 H   0  0  0  0  0  0  0  0  0  0  0
    0.7310    2.3800    5.3440 H   0  0  0  0  0  0  0  0  0  0  0
   -1.3830   -1.5440    5.7090 H   0  0  0  0  0  0  0  0  0  0  0
   -0.0830   -2.4200    4.8770 H   0  0  0  0  0  0  0  0  0  0  0
   -3.7690   -1.5860    4.7100 H   0  0  0  0  0  0  0  0  0  0  0
   -4.0640   -2.4960    3.2170 H   0  0  0  0  0  0  0  0  0  0  0
    3.6840    1.4090    6.4670 H   0  0  0  0  0  0  0  0  0  0  0
    4.6480    2.7270    5.7660 H   0  0  0  0  0  0  0  0  0  0  0
    2.9080    2.9500    6.0530 H   0  0  0  0  0  0  0  0  0  0  0
   -4.8420   -3.7390    5.1860 H   0  0  0  0  0  0  0  0  0  0  0
   -3.5450   -4.6050    4.3390 H   0  0  0  0  0  0  0  0  0  0  0
   -1.1800   -4.5610    5.3170 H   0  0  0  0  0  0  0  0  0  0  0
   -0.8890   -3.6720    6.8260 H   0  0  0  0  0  0  0  0  0  0  0
   -3.2330   -2.8980    6.8560 H   0  0  0  0  0  0  0  0  0  0  0
   -3.1680   -4.6720    6.7750 H   0  0  0  0  0  0  0  0  0  0  0
  1  7  1  0  0  0  0
  1 11  1  0  0  0  0
  1 27  1  0  0  0  0
  2  3  1  0  0  0  0
  2 12  1  0  0  0  0
  2 18  2  0  0  0  0
  3 14  1  0  0  0  0
  3 15  1  0  0  0  0
  3 24  1  0  0  0  0
  4  8  1  0  0  0  0
  4  9  1  0  0  0  0
  4 20  2  0  0  0  0
  5  6  1  0  0  0  0
  5 11  1  0  0  0  0
  5 13  1  1  0  0  0
  5 45  1  0  0  0  0
  6 10  1  0  0  0  0
  6 22  2  0  0  0  0
  7 21  2  0  0  0  0
  7 25  1  0  0  0  0
  8 16  1  0  0  0  0
  8 17  1  0  0  0  0
  9 10  1  6  0  0  0
  9 19  1  0  0  0  0
  9 46  1  0  0  0  0
 10 47  1  0  0  0  0
 11 48  1  0  0  0  0
 11 49  1  0  0  0  0
 12 23  1  0  0  0  0
 12 50  1  0  0  0  0
 13 29  1  0  0  0  0
 13 51  1  0  0  0  0
 14 17  1  0  0  0  0
 14 52  1  0  0  0  0
 14 53  1  0  0  0  0
 15 16  1  0  0  0  0
 15 54  1  0  0  0  0
 15 55  1  0  0  0  0
 16 56  1  0  0  0  0
 16 57  1  0  0  0  0
 17 58  1  0  0  0  0
 17 59  1  0  0  0  0
 19 26  1  0  0  0  0
 19 60  1  0  0  0  0
 19 61  1  0  0  0  0
 23 36  1  0  0  0  0
 23 37  1  0  0  0  0
 23 38  1  0  0  0  0
 24 39  1  0  0  0  0
 24 40  1  0  0  0  0
 24 62  1  0  0  0  0
 25 30  1  0  0  0  0
 25 41  1  1  0  0  0
 25 63  1  0  0  0  0
 26 32  2  0  0  0  0
 26 33  1  0  0  0  0
 27 29  1  0  0  0  0
 27 64  1  0  0  0  0
 27 65  1  0  0  0  0
 28 31  1  0  0  0  0
 28 34  2  0  0  0  0
 28 35  1  0  0  0  0
 29 66  1  0  0  0  0
 29 67  1  0  0  0  0
 30 68  1  0  0  0  0
 30 69  1  0  0  0  0
 32 34  1  0  0  0  0
 32 70  1  0  0  0  0
 33 35  2  0  0  0  0
 33 71  1  0  0  0  0
 34 72  1  0  0  0  0
 35 73  1  0  0  0  0
 36 74  1  0  0  0  0
 36 75  1  0  0  0  0
 36 76  1  0  0  0  0
 37 77  1  0  0  0  0
 37 78  1  0  0  0  0
 37 79  1  0  0  0  0
 38 80  1  0  0  0  0
 38 81  1  0  0  0  0
 38 82  1  0  0  0  0
 39 43  1  0  0  0  0
 39 83  1  0  0  0  0
 39 84  1  0  0  0  0
 40 42  1  0  0  0  0
 40 85  1  0  0  0  0
 40 86  1  0  0  0  0
 41 87  1  0  0  0  0
 41 88  1  0  0  0  0
 41 89  1  0  0  0  0
 42 44  1  0  0  0  0
 42 90  1  0  0  0  0
 42 91  1  0  0  0  0
 43 44  1  0  0  0  0
 43 92  1  0  0  0  0
 43 93  1  0  0  0  0
 44 94  1  0  0  0  0
 44 95  1  0  0  0  0
M  END
> <From>
www.bindingDB.org

> <BindingDB Reactant_set_id>
50484640

> <Ligand InChI>
InChI=1S/C26H31ClN4O4S/c1-15(2)36(33,34)22-9-7-6-8-19(22)29-24-18(27)14-28-25(31-24)30-20-13-17-16(12-21(20)35-5)10-11-23(32)26(17,3)4/h6-9,12-15,23,32H,10-11H2,1-5H3,(H2,28,29,30,31)

> <Ligand InChI Key>
JIPHDNRTCIBUTG-UHFFFAOYSA-N

> <BindingDB MonomerID>
50157318

> <BindingDB Ligand Name>
CHEMBL3785322

> <Target Name Assigned by Curator or DataSource>
ALK tyrosine kinase receptor

> <Target Source Organism According to Curator or DataSource>
Homo sapiens

> <Ki (nM)>


> <IC50 (nM)>
 109

> <Kd (nM)>


> <EC50 (nM)>


> <kon (M-1-s-1)>


> <koff (s-1)>


> <pH>


> <Temp C>


> <Curation/DataSource>
ChEMBL

> <Article DOI>
10.1016/j.bmcl.2016.02.052

> <PMID>
26923695

> <PubChem AID>


> <Patent Number>


> <Authors>
Song, D; Lee, M; Park, CH; Ahn, S; Yun, CS; Lee, CO; Kim, HR; Hwang, JY

> <Institution>
Chungbuk National University

> <Link to Ligand in BindingDB>
http://www.bindingdb.org/bind/chemsearch/marvin/MolStructure.jsp?monomerid=50157318

> <Link to Ligand-Target Pair in BindingDB>
http://www.bindingdb.org/jsp/dbsearch/PrimarySearch_ki.jsp?energyterm=kJ/mole&tag=pol&polymerid=5809&target=ALK+tyrosine+kinase+receptor&column=ki&startPg=0&Increment=50&submit=Search

> <Link to Ligand-Target Pair in BindingDB>
http://www.bindingdb.org/jsp/dbsearch/PrimarySearch_ki.jsp?energyterm=kJ/mole&tag=r21&monomerid=50157318&enzyme=ALK+tyrosine+kinase+receptor&column=ki&startPg=0&Increment=50&submit=Search

> <Ligand HET ID in PDB>


> <PDB ID(s) for Ligand-Target Complex>


> <PubChem CID>
127032117

> <PubChem SID>
104044320

> <ChEBI ID of Ligand>


> <ChEMBL ID of Ligand>
CHEMBL3785322

> <DrugBank ID of Ligand>


> <IUPHAR_GRAC ID of Ligand>


> <KEGG ID of Ligand>


> <ZINC ID of Ligand>
ZINC28352952

> <Number of Protein Chains in Target (>1 implies a multichain complex)>
1

> <BindingDB Target Chain Sequence>
MGAIGLLWLLPLLLSTAAVGSGMGTGQRAGSPAAGPPLQPREPLSYSRLQRKSLAVDFVVPSLFRVYARDLLLPPSSSELKAGRPEARGSLALDCAPLLRLLGPAPGVSWTAGSPAPAEARTLSRVLKGGSVRKLRRAKQLVLELGEEAILEGCVGPPGEAAVGLLQFNLSELFSWWIRQGEGRLRIRLMPEKKASEVGREGRLSAAIRASQPRLLFQIFGTGHSSLESPTNMPSPSPDYFTWNLTWIMKDSFPFLSHRSRYGLECSFDFPCELEYSPPLHDLRNQSWSWRRIPSEEASQMDLLDGPGAERSKEMPRGSFLLLNTSADSKHTILSPWMRSSSEHCTLAVSVHRHLQPSGRYIAQLLPHNEAAREILLMPTPGKHGWTVLQGRIGRPDNPFRVALEYISSGNRSLSAVDFFALKNCSEGTSPGSKMALQSSFTCWNGTVLQLGQACDFHQDCAQGEDESQMCRKLPVGFYCNFEDGFCGWTQGTLSPHTPQWQVRTLKDARFQDHQDHALLLSTTDVPASESATVTSATFPAPIKSSPCELRMSWLIRGVLRGNVSLVLVENKTGKEQGRMVWHVAAYEGLSLWQWMVLPLLDVSDRFWLQMVAWWGQGSRAIVAFDNISISLDCYLTISGEDKILQNTAPKSRNLFERNPNKELKPGENSPRQTPIFDPTVHWLFTTCGASGPHGPTQAQCNNAYQNSNLSVEVGSEGPLKGIQIWKVPATDTYSISGYGAAGGKGGKNTMMRSHGVSVLGIFNLEKDDMLYILVGQQGEDACPSTNQLIQKVCIGENNVIEEEIRVNRSVHEWAGGGGGGGGATYVFKMKDGVPVPLIIAAGGGGRAYGAKTDTFHPERLENNSSVLGLNGNSGAAGGGGGWNDNTSLLWAGKSLQEGATGGHSCPQAMKKWGWETRGGFGGGGGGCSSGGGGGGYIGGNAASNNDPEMDGEDGVSFISPLGILYTPALKVMEGHGEVNIKHYLNCSHCEVDECHMDPESHKVICFCDHGTVLAEDGVSCIVSPTPEPHLPLSLILSVVTSALVAALVLAFSGIMIVYRRKHQELQAMQMELQSPEYKLSKLRTSTIMTDYNPNYCFAGKTSSISDLKEVPRKNITLIRGLGHGAFGEVYEGQVSGMPNDPSPLQVAVKTLPEVCSEQDELDFLMEALIISKFNHQNIVRCIGVSLQSLPRFILLELMAGGDLKSFLRETRPRPSQPSSLAMLDLLHVARDIACGCQYLEENHFIHRDIAARNCLLTCPGPGRVAKIGDFGMARDIYRASYYRKGGCAMLPVKWMPPEAFMEGIFTSKTDTWSFGVLLWEIFSLGYMPYPSKSNQEVLEFVTSGGRMDPPKNCPGPVYRIMTQCWQHQPEDRPNFAIILERIEYCTQDPDVINTALPIEYGPLVEEEEKVPVRPKDPEGVPPLLVSQQAKREEERSPAAPPPLPTTSSGKAAKKPTAAEISVRVPRGPAVEGGHVNMAFSQSNPPSELHKVHGSRNKPTSLWNPTYGSWFTEKPTKKNNPIAKKEPHDRGNLGLEGSCTVPPNVATGRLPGASLLLEPSSLTANMKEVPLFRLRHFPCGNVNYGYQQQGLPLEAATAPGAGHYEDTILKSKNSMNQPGP

> <PDB ID(s) of Target Chain>
2XB7,2XBA,3AOX,5FTO,5FTQ,6E0R,6EBW,6EDL,6MX8

> <UniProt (SwissProt) Recommended Name of Target Chain>
ALK tyrosine kinase receptor

> <UniProt (SwissProt) Entry Name of Target Chain>
ALK_HUMAN

> <UniProt (SwissProt) Primary ID of Target Chain>
Q9UM73

> <UniProt (SwissProt) Secondary ID(s) of Target Chain>
Q4ZFX9,Q53QQ6,Q53RZ4,Q59FI3,Q9Y4K6

> <UniProt (SwissProt) Alternative ID(s) of Target Chain>


> <UniProt (TrEMBL) Submitted Name of Target Chain>


> <UniProt (TrEMBL) Entry Name of Target Chain>


> <UniProt (TrEMBL) Primary ID of Target Chain>


> <UniProt (TrEMBL) Secondary ID(s) of Target Chain>


> <UniProt (TrEMBL) Alternative ID(s) of Target Chain>


$$$$
BindingDB_50157319

Vconf v2.0 Academic SN VC001-00000245
 91 94  0  0  0  0  0  0  0  0999 V2000
   -1.5490    1.7910    2.2300 C   0  0  0  0  0  0  0  0  0  0  0
   -0.1670    2.2840    1.9870 C   0  0  1  0  0  0  0  0  0  0  0
    3.2580    0.7280    0.1520 C   0  0  0  0  0  0  0  0  0  0  0
    3.6000   -1.3330   -2.6780 C   0  0  0  0  0  0  0  0  0  0  0
    4.3820   -2.5070   -3.0820 C   0  0  1  0  0  0  0  0  0  0  0
    2.4240    1.6040    0.8000 N   0  0  0  0  0  0  0  0  0  0  0
    3.4310    0.7080   -1.3180 C   0  0  2  0  0  0  0  0  0  0  0
    4.0820   -0.4960   -1.7320 N   0  0  0  0  0  0  0  0  0  0  0
   -1.9300    1.4680    3.4860 N   0  0  0  0  0  0  0  0  0  0  0
    3.5740   -3.7190   -2.8710 N   0  0  0  0  0  0  0  0  0  0  0
    0.8270    1.2460    2.5760 C   0  0  0  0  0  0  0  0  0  0  0
    0.1240    2.3060    0.4580 C   0  0  0  0  0  0  0  0  0  0  0
    5.5570   -3.5790   -4.9820 N   0  0  0  0  0  0  0  0  0  0  0
    4.7920   -2.3870   -4.5630 C   0  0  0  0  0  0  0  0  0  0  0
    1.6050    2.5650    0.1270 C   0  0  0  0  0  0  0  0  0  0  0
    2.2850    1.5820    2.2250 C   0  0  0  0  0  0  0  0  0  0  0
   -2.3570    1.6880    1.2800 O   0  0  0  0  0  0  0  0  0  0  0
    4.2920    1.9110   -1.7780 C   0  0  0  0  0  0  0  0  0  0  0
    3.9140   -0.0990    0.8290 O   0  0  0  0  0  0  0  0  0  0  0
    2.5110   -1.0990   -3.2490 O   0  0  0  0  0  0  0  0  0  0  0
   -3.2250    1.0210    3.8780 C   0  0  0  0  0  0  0  0  0  0  0
    0.0260    3.7130    2.6030 C   0  0  0  0  0  0  0  0  0  0  0
    4.4420    1.9580   -3.2480 C   0  0  0  0  0  0  0  0  0  0  0
    4.7000    1.9670   -6.0600 C   0  0  0  0  0  0  0  0  0  0  0
    4.3200   -4.9080   -3.3050 C   0  0  0  0  0  0  0  0  0  0  0
    4.8180    1.9620   -7.3580 F   0  0  0  0  0  0  0  0  0  0  0
    3.3210    2.2010   -4.0670 C   0  0  0  0  0  0  0  0  0  0  0
    5.6970    1.7330   -3.8500 C   0  0  0  0  0  0  0  0  0  0  0
    3.4480    2.2030   -5.4670 C   0  0  0  0  0  0  0  0  0  0  0
    5.8260    1.7350   -5.2500 C   0  0  0  0  0  0  0  0  0  0  0
    4.7250   -4.7840   -4.7810 C   0  0  0  0  0  0  0  0  0  0  0
    5.9500   -3.4300   -6.3990 C   0  0  0  0  0  0  0  0  0  0  0
   -3.1720    0.7950    5.3990 C   0  0  0  0  0  0  0  0  0  0  0
   -4.2990    2.0860    3.5810 C   0  0  0  0  0  0  0  0  0  0  0
   -3.5940   -0.3140    3.2020 C   0  0  0  0  0  0  0  0  0  0  0
   -1.0490    4.7210    2.1270 C   0  0  0  0  0  0  0  0  0  0  0
    0.0700    3.7450    4.1500 C   0  0  0  0  0  0  0  0  0  0  0
    6.9620   -4.5020   -6.8260 C   0  0  0  0  0  0  0  0  0  0  0
    0.3780    5.1600    4.6610 C   0  0  0  0  0  0  0  0  0  0  0
   -0.7460    6.1370    2.6380 C   0  0  0  0  0  0  0  0  0  0  0
   -0.6860    6.1510    4.1710 C   0  0  0  0  0  0  0  0  0  0  0
    5.2850   -2.5680   -2.4710 H   0  0  0  0  0  0  0  0  0  0  0
    2.4420    0.7660   -1.7740 H   0  0  0  0  0  0  0  0  0  0  0
    4.9310   -0.7140   -1.3210 H   0  0  0  0  0  0  0  0  0  0  0
   -1.2630    1.5590    4.1830 H   0  0  0  0  0  0  0  0  0  0  0
    2.7580   -3.6330   -3.4810 H   0  0  0  0  0  0  0  0  0  0  0
    0.6060    0.2590    2.1610 H   0  0  0  0  0  0  0  0  0  0  0
    0.7260    1.1780    3.6580 H   0  0  0  0  0  0  0  0  0  0  0
   -0.1360    1.3350    0.0300 H   0  0  0  0  0  0  0  0  0  0  0
   -0.4840    3.0600   -0.0400 H   0  0  0  0  0  0  0  0  0  0  0
    3.9020   -2.2820   -5.1870 H   0  0  0  0  0  0  0  0  0  0  0
    5.4160   -1.5000   -4.6860 H   0  0  0  0  0  0  0  0  0  0  0
    1.7080    2.5310   -0.9560 H   0  0  0  0  0  0  0  0  0  0  0
    1.8910    3.5660    0.4480 H   0  0  0  0  0  0  0  0  0  0  0
    2.5500    2.5570    2.6330 H   0  0  0  0  0  0  0  0  0  0  0
    2.9270    0.8370    2.6990 H   0  0  0  0  0  0  0  0  0  0  0
    3.8390    2.8470   -1.4470 H   0  0  0  0  0  0  0  0  0  0  0
    5.2740    1.8340   -1.3040 H   0  0  0  0  0  0  0  0  0  0  0
    0.9880    4.0980    2.2680 H   0  0  0  0  0  0  0  0  0  0  0
    5.2130   -5.0260   -2.6900 H   0  0  0  0  0  0  0  0  0  0  0
    3.6880   -5.7870   -3.1810 H   0  0  0  0  0  0  0  0  0  0  0
    2.4060    2.3650   -3.6450 H   0  0  0  0  0  0  0  0  0  0  0
    6.5180    1.5540   -3.2710 H   0  0  0  0  0  0  0  0  0  0  0
    2.6270    2.3730   -6.0500 H   0  0  0  0  0  0  0  0  0  0  0
    6.7380    1.5630   -5.6750 H   0  0  0  0  0  0  0  0  0  0  0
    3.8260   -4.7310   -5.3980 H   0  0  0  0  0  0  0  0  0  0  0
    5.2880   -5.6770   -5.0510 H   0  0  0  0  0  0  0  0  0  0  0
    5.0720   -3.4840   -7.0450 H   0  0  0  0  0  0  0  0  0  0  0
    6.4240   -2.4570   -6.5380 H   0  0  0  0  0  0  0  0  0  0  0
   -4.1460    0.4620    5.7590 H   0  0  0  0  0  0  0  0  0  0  0
   -2.4270    0.0350    5.6350 H   0  0  0  0  0  0  0  0  0  0  0
   -2.9060    1.7250    5.9040 H   0  0  0  0  0  0  0  0  0  0  0
   -5.2590    1.7630    3.9860 H   0  0  0  0  0  0  0  0  0  0  0
   -4.0180    3.0330    4.0420 H   0  0  0  0  0  0  0  0  0  0  0
   -4.4050    2.2300    2.5060 H   0  0  0  0  0  0  0  0  0  0  0
   -4.5400   -0.6800    3.6020 H   0  0  0  0  0  0  0  0  0  0  0
   -3.6990   -0.1790    2.1250 H   0  0  0  0  0  0  0  0  0  0  0
   -2.8160   -1.0530    3.3950 H   0  0  0  0  0  0  0  0  0  0  0
   -2.0310    4.4200    2.4930 H   0  0  0  0  0  0  0  0  0  0  0
   -1.0770    4.7580    1.0400 H   0  0  0  0  0  0  0  0  0  0  0
   -0.8870    3.4300    4.5630 H   0  0  0  0  0  0  0  0  0  0  0
    0.8540    3.0870    4.5180 H   0  0  0  0  0  0  0  0  0  0  0
    7.3360   -4.2660   -7.8220 H   0  0  0  0  0  0  0  0  0  0  0
    7.7970   -4.5190   -6.1240 H   0  0  0  0  0  0  0  0  0  0  0
    6.4880   -5.4820   -6.8510 H   0  0  0  0  0  0  0  0  0  0  0
    0.3870    5.1540    5.7510 H   0  0  0  0  0  0  0  0  0  0  0
    1.3590    5.4710    4.3010 H   0  0  0  0  0  0  0  0  0  0  0
    0.2090    6.4740    2.2330 H   0  0  0  0  0  0  0  0  0  0  0
   -1.5320    6.8160    2.3040 H   0  0  0  0  0  0  0  0  0  0  0
   -1.6590    5.8710    4.5760 H   0  0  0  0  0  0  0  0  0  0  0
   -0.4330    7.1540    4.5150 H   0  0  0  0  0  0  0  0  0  0  0
  1  2  1  0  0  0  0
  1  9  1  0  0  0  0
  1 17  2  0  0  0  0
  2 11  1  0  0  0  0
  2 12  1  0  0  0  0
  2 22  1  0  0  0  0
  3  6  1  0  0  0  0
  3  7  1  0  0  0  0
  3 19  2  0  0  0  0
  4  5  1  0  0  0  0
  4  8  1  0  0  0  0
  4 20  2  0  0  0  0
  5 10  1  1  0  0  0
  5 14  1  0  0  0  0
  5 42  1  0  0  0  0
  6 15  1  0  0  0  0
  6 16  1  0  0  0  0
  7  8  1  6  0  0  0
  7 18  1  0  0  0  0
  7 43  1  0  0  0  0
  8 44  1  0  0  0  0
  9 21  1  0  0  0  0
  9 45  1  0  0  0  0
 10 25  1  0  0  0  0
 10 46  1  0  0  0  0
 11 16  1  0  0  0  0
 11 47  1  0  0  0  0
 11 48  1  0  0  0  0
 12 15  1  0  0  0  0
 12 49  1  0  0  0  0
 12 50  1  0  0  0  0
 13 14  1  0  0  0  0
 13 31  1  0  0  0  0
 13 32  1  0  0  0  0
 14 51  1  0  0  0  0
 14 52  1  0  0  0  0
 15 53  1  0  0  0  0
 15 54  1  0  0  0  0
 16 55  1  0  0  0  0
 16 56  1  0  0  0  0
 18 23  1  0  0  0  0
 18 57  1  0  0  0  0
 18 58  1  0  0  0  0
 21 33  1  0  0  0  0
 21 34  1  0  0  0  0
 21 35  1  0  0  0  0
 22 36  1  0  0  0  0
 22 37  1  0  0  0  0
 22 59  1  0  0  0  0
 23 27  2  0  0  0  0
 23 28  1  0  0  0  0
 24 26  1  0  0  0  0
 24 29  2  0  0  0  0
 24 30  1  0  0  0  0
 25 31  1  0  0  0  0
 25 60  1  0  0  0  0
 25 61  1  0  0  0  0
 27 29  1  0  0  0  0
 27 62  1  0  0  0  0
 28 30  2  0  0  0  0
 28 63  1  0  0  0  0
 29 64  1  0  0  0  0
 30 65  1  0  0  0  0
 31 66  1  0  0  0  0
 31 67  1  0  0  0  0
 32 38  1  0  0  0  0
 32 68  1  0  0  0  0
 32 69  1  0  0  0  0
 33 70  1  0  0  0  0
 33 71  1  0  0  0  0
 33 72  1  0  0  0  0
 34 73  1  0  0  0  0
 34 74  1  0  0  0  0
 34 75  1  0  0  0  0
 35 76  1  0  0  0  0
 35 77  1  0  0  0  0
 35 78  1  0  0  0  0
 36 40  1  0  0  0  0
 36 79  1  0  0  0  0
 36 80  1  0  0  0  0
 37 39  1  0  0  0  0
 37 81  1  0  0  0  0
 37 82  1  0  0  0  0
 38 83  1  0  0  0  0
 38 84  1  0  0  0  0
 38 85  1  0  0  0  0
 39 41  1  0  0  0  0
 39 86  1  0  0  0  0
 39 87  1  0  0  0  0
 40 41  1  0  0  0  0
 40 88  1  0  0  0  0
 40 89  1  0  0  0  0
 41 90  1  0  0  0  0
 41 91  1  0  0  0  0
M  END
> <From>
www.bindingDB.org

> <BindingDB Reactant_set_id>
50484641

> <Ligand InChI>
InChI=1S/C26H31ClN4O4S/c1-15(2)36(33,34)22-9-7-6-8-19(22)29-24-18(27)14-28-25(31-24)30-20-12-16-10-11-23(32)26(3,4)17(16)13-21(20)35-5/h6-9,12-15,23,32H,10-11H2,1-5H3,(H2,28,29,30,31)

> <Ligand InChI Key>
DBJXQMDAIFLJAD-UHFFFAOYSA-N

> <BindingDB MonomerID>
50157319

> <BindingDB Ligand Name>
CHEMBL3786270

> <Target Name Assigned by Curator or DataSource>
ALK tyrosine kinase receptor

> <Target Source Organism According to Curator or DataSource>
Homo sapiens

> <Ki (nM)>


> <IC50 (nM)>
 56

> <Kd (nM)>


> <EC50 (nM)>


> <kon (M-1-s-1)>


> <koff (s-1)>


> <pH>


> <Temp C>


> <Curation/DataSource>
ChEMBL

> <Article DOI>
10.1016/j.bmcl.2016.02.052

> <PMID>
26923695

> <PubChem AID>


> <Patent Number>


> <Authors>
Song, D; Lee, M; Park, CH; Ahn, S; Yun, CS; Lee, CO; Kim, HR; Hwang, JY

> <Institution>
Chungbuk National University

> <Link to Ligand in BindingDB>
http://www.bindingdb.org/bind/chemsearch/marvin/MolStructure.jsp?monomerid=50157319

> <Link to Ligand-Target Pair in BindingDB>
http://www.bindingdb.org/jsp/dbsearch/PrimarySearch_ki.jsp?energyterm=kJ/mole&tag=pol&polymerid=5809&target=ALK+tyrosine+kinase+receptor&column=ki&startPg=0&Increment=50&submit=Search

> <Link to Ligand-Target Pair in BindingDB>
http://www.bindingdb.org/jsp/dbsearch/PrimarySearch_ki.jsp?energyterm=kJ/mole&tag=r21&monomerid=50157319&enzyme=ALK+tyrosine+kinase+receptor&column=ki&startPg=0&Increment=50&submit=Search

> <Ligand HET ID in PDB>


> <PDB ID(s) for Ligand-Target Complex>


> <PubChem CID>
127031879

> <PubChem SID>
104044321

> <ChEBI ID of Ligand>


> <ChEMBL ID of Ligand>
CHEMBL3786270

> <DrugBank ID of Ligand>


> <IUPHAR_GRAC ID of Ligand>


> <KEGG ID of Ligand>


> <ZINC ID of Ligand>
ZINC28348069

> <Number of Protein Chains in Target (>1 implies a multichain complex)>
1

> <BindingDB Target Chain Sequence>
MGAIGLLWLLPLLLSTAAVGSGMGTGQRAGSPAAGPPLQPREPLSYSRLQRKSLAVDFVVPSLFRVYARDLLLPPSSSELKAGRPEARGSLALDCAPLLRLLGPAPGVSWTAGSPAPAEARTLSRVLKGGSVRKLRRAKQLVLELGEEAILEGCVGPPGEAAVGLLQFNLSELFSWWIRQGEGRLRIRLMPEKKASEVGREGRLSAAIRASQPRLLFQIFGTGHSSLESPTNMPSPSPDYFTWNLTWIMKDSFPFLSHRSRYGLECSFDFPCELEYSPPLHDLRNQSWSWRRIPSEEASQMDLLDGPGAERSKEMPRGSFLLLNTSADSKHTILSPWMRSSSEHCTLAVSVHRHLQPSGRYIAQLLPHNEAAREILLMPTPGKHGWTVLQGRIGRPDNPFRVALEYISSGNRSLSAVDFFALKNCSEGTSPGSKMALQSSFTCWNGTVLQLGQACDFHQDCAQGEDESQMCRKLPVGFYCNFEDGFCGWTQGTLSPHTPQWQVRTLKDARFQDHQDHALLLSTTDVPASESATVTSATFPAPIKSSPCELRMSWLIRGVLRGNVSLVLVENKTGKEQGRMVWHVAAYEGLSLWQWMVLPLLDVSDRFWLQMVAWWGQGSRAIVAFDNISISLDCYLTISGEDKILQNTAPKSRNLFERNPNKELKPGENSPRQTPIFDPTVHWLFTTCGASGPHGPTQAQCNNAYQNSNLSVEVGSEGPLKGIQIWKVPATDTYSISGYGAAGGKGGKNTMMRSHGVSVLGIFNLEKDDMLYILVGQQGEDACPSTNQLIQKVCIGENNVIEEEIRVNRSVHEWAGGGGGGGGATYVFKMKDGVPVPLIIAAGGGGRAYGAKTDTFHPERLENNSSVLGLNGNSGAAGGGGGWNDNTSLLWAGKSLQEGATGGHSCPQAMKKWGWETRGGFGGGGGGCSSGGGGGGYIGGNAASNNDPEMDGEDGVSFISPLGILYTPALKVMEGHGEVNIKHYLNCSHCEVDECHMDPESHKVICFCDHGTVLAEDGVSCIVSPTPEPHLPLSLILSVVTSALVAALVLAFSGIMIVYRRKHQELQAMQMELQSPEYKLSKLRTSTIMTDYNPNYCFAGKTSSISDLKEVPRKNITLIRGLGHGAFGEVYEGQVSGMPNDPSPLQVAVKTLPEVCSEQDELDFLMEALIISKFNHQNIVRCIGVSLQSLPRFILLELMAGGDLKSFLRETRPRPSQPSSLAMLDLLHVARDIACGCQYLEENHFIHRDIAARNCLLTCPGPGRVAKIGDFGMARDIYRASYYRKGGCAMLPVKWMPPEAFMEGIFTSKTDTWSFGVLLWEIFSLGYMPYPSKSNQEVLEFVTSGGRMDPPKNCPGPVYRIMTQCWQHQPEDRPNFAIILERIEYCTQDPDVINTALPIEYGPLVEEEEKVPVRPKDPEGVPPLLVSQQAKREEERSPAAPPPLPTTSSGKAAKKPTAAEISVRVPRGPAVEGGHVNMAFSQSNPPSELHKVHGSRNKPTSLWNPTYGSWFTEKPTKKNNPIAKKEPHDRGNLGLEGSCTVPPNVATGRLPGASLLLEPSSLTANMKEVPLFRLRHFPCGNVNYGYQQQGLPLEAATAPGAGHYEDTILKSKNSMNQPGP

> <PDB ID(s) of Target Chain>
2XB7,2XBA,3AOX,5FTO,5FTQ,6E0R,6EBW,6EDL,6MX8

> <UniProt (SwissProt) Recommended Name of Target Chain>
ALK tyrosine kinase receptor

> <UniProt (SwissProt) Entry Name of Target Chain>
ALK_HUMAN

> <UniProt (SwissProt) Primary ID of Target Chain>
Q9UM73

> <UniProt (SwissProt) Secondary ID(s) of Target Chain>
Q4ZFX9,Q53QQ6,Q53RZ4,Q59FI3,Q9Y4K6

> <UniProt (SwissProt) Alternative ID(s) of Target Chain>


> <UniProt (TrEMBL) Submitted Name of Target Chain>


> <UniProt (TrEMBL) Entry Name of Target Chain>


> <UniProt (TrEMBL) Primary ID of Target Chain>


> <UniProt (TrEMBL) Secondary ID(s) of Target Chain>


> <UniProt (TrEMBL) Alternative ID(s) of Target Chain>


$$$$

  SciTegic12191611462D

 37 40  0  0  0  0            999 V2000
   -1.2964    1.4973    0.0000 C   0  0
   -2.6111    0.7486    0.0000 C   0  0
   -2.6111   -0.7486    0.0000 C   0  0
   -1.2964   -1.4973    0.0000 C   0  0
    0.0000   -0.7486    0.0000 C   0  0
    1.2964   -1.4973    0.0000 C   0  0
    2.5929   -0.7486    0.0000 C   0  0
    2.5929    0.7486    0.0000 C   0  0
    1.2964    1.4973    0.0000 C   0  0
    0.0000    0.7486    0.0000 C   0  0
   -3.9122    1.4966    0.0000 N   0  0
   -4.9506    0.8952    0.0000 O   0  0
   -0.2414    2.0691    0.0000 C   0  0
   -2.3479    2.0756    0.0000 C   0  0
    3.8911   -1.5017    0.0000 O   0  0
    3.8894   -2.7017    0.0000 C   0  0
    3.8911    1.5017    0.0000 N   0  0
    3.8890    3.0026    0.0000 C   0  0
    5.1854    3.7571    0.0000 N   0  0
    5.1802    5.2571    0.0000 C   0  0
    3.8786    6.0026    0.0000 C   0  0
    2.5821    5.2482    0.0000 C   0  0
    2.5873    3.7482    0.0000 N   0  0
    6.4789    6.0094    0.0000 N   0  0
    7.7802    5.2616    0.0000 C   0  0
    9.0793    6.0115    0.0000 C   0  0
   10.3783    5.2615    0.0000 C   0  0
   10.3783    3.7615    0.0000 C   0  0
    9.0793    3.0115    0.0000 C   0  0
    7.7803    3.7615    0.0000 C   0  0
    9.0794    7.5124    0.0000 S   0  0
    7.7801    8.2636    0.0000 C   0  0
    7.7802    9.4636    0.0000 C   0  0
    6.7407    7.6640    0.0000 C   0  0
    3.8744    7.2026    0.0000 Cl  0  0
    9.0800    8.7124    0.0000 O   0  0
   10.1188    8.1120    0.0000 O   0  0
  1  2  1  0
  2  3  1  0
  3  4  1  0
  4  5  1  0
  5  6  1  0
  6  7  2  0
  7  8  1  0
  8  9  2  0
  9 10  1  0
  1 10  1  0
  5 10  2  0
 11 12  1  0
  2 11  2  0
  1 13  1  0
  1 14  1  0
 15 16  1  0
  7 15  1  0
 18 19  1  0
 19 20  2  0
 20 21  1  0
 21 22  2  0
 22 23  1  0
 18 23  2  0
 25 26  1  0
 26 27  2  0
 27 28  1  0
 28 29  2  0
 29 30  1  0
 25 30  2  0
 32 33  1  0
 32 34  1  0
 31 32  1  0
 26 31  1  0
 24 25  1  0
 20 24  1  0
 21 35  1  0
 17 18  1  0
  8 17  1  0
 31 36  2  0
 31 37  2  0
M  END
> <From>
www.bindingDB.org

> <BindingDB Reactant_set_id>
50484642

> <Ligand InChI>
InChI=1S/C26H30ClN5O4S/c1-15(2)37(34,35)22-9-7-6-8-19(22)29-24-18(27)14-28-25(31-24)30-20-13-17-16(12-21(20)36-5)10-11-23(32-33)26(17,3)4/h6-9,12-15,33H,10-11H2,1-5H3,(H2,28,29,30,31)/b32-23+

> <Ligand InChI Key>
DLZCCQFNABDGIZ-AWSUPERCSA-N

> <BindingDB MonomerID>
50157322

> <BindingDB Ligand Name>
CHEMBL3786831

> <Target Name Assigned by Curator or DataSource>
ALK tyrosine kinase receptor

> <Target Source Organism According to Curator or DataSource>
Homo sapiens

> <Ki (nM)>


> <IC50 (nM)>
 600

> <Kd (nM)>


> <EC50 (nM)>


> <kon (M-1-s-1)>


> <koff (s-1)>


> <pH>


> <Temp C>


> <Curation/DataSource>
ChEMBL

> <Article DOI>
10.1016/j.bmcl.2016.02.052

> <PMID>
26923695

> <PubChem AID>


> <Patent Number>


> <Authors>
Song, D; Lee, M; Park, CH; Ahn, S; Yun, CS; Lee, CO; Kim, HR; Hwang, JY

> <Institution>
Chungbuk National University

> <Link to Ligand in BindingDB>
http://www.bindingdb.org/bind/chemsearch/marvin/MolStructure.jsp?monomerid=50157322

> <Link to Ligand-Target Pair in BindingDB>
http://www.bindingdb.org/jsp/dbsearch/PrimarySearch_ki.jsp?energyterm=kJ/mole&tag=pol&polymerid=5809&target=ALK+tyrosine+kinase+receptor&column=ki&startPg=0&Increment=50&submit=Search

> <Link to Ligand-Target Pair in BindingDB>
http://www.bindingdb.org/jsp/dbsearch/PrimarySearch_ki.jsp?energyterm=kJ/mole&tag=r21&monomerid=50157322&enzyme=ALK+tyrosine+kinase+receptor&column=ki&startPg=0&Increment=50&submit=Search

> <Ligand HET ID in PDB>


> <PDB ID(s) for Ligand-Target Complex>


> <PubChem CID>
127031880

> <PubChem SID>
340134036

> <ChEBI ID of Ligand>


> <ChEMBL ID of Ligand>
CHEMBL3786831

> <DrugBank ID of Ligand>


> <IUPHAR_GRAC ID of Ligand>


> <KEGG ID of Ligand>


> <ZINC ID of Ligand>


> <Number of Protein Chains in Target (>1 implies a multichain complex)>
1

> <BindingDB Target Chain Sequence>
MGAIGLLWLLPLLLSTAAVGSGMGTGQRAGSPAAGPPLQPREPLSYSRLQRKSLAVDFVVPSLFRVYARDLLLPPSSSELKAGRPEARGSLALDCAPLLRLLGPAPGVSWTAGSPAPAEARTLSRVLKGGSVRKLRRAKQLVLELGEEAILEGCVGPPGEAAVGLLQFNLSELFSWWIRQGEGRLRIRLMPEKKASEVGREGRLSAAIRASQPRLLFQIFGTGHSSLESPTNMPSPSPDYFTWNLTWIMKDSFPFLSHRSRYGLECSFDFPCELEYSPPLHDLRNQSWSWRRIPSEEASQMDLLDGPGAERSKEMPRGSFLLLNTSADSKHTILSPWMRSSSEHCTLAVSVHRHLQPSGRYIAQLLPHNEAAREILLMPTPGKHGWTVLQGRIGRPDNPFRVALEYISSGNRSLSAVDFFALKNCSEGTSPGSKMALQSSFTCWNGTVLQLGQACDFHQDCAQGEDESQMCRKLPVGFYCNFEDGFCGWTQGTLSPHTPQWQVRTLKDARFQDHQDHALLLSTTDVPASESATVTSATFPAPIKSSPCELRMSWLIRGVLRGNVSLVLVENKTGKEQGRMVWHVAAYEGLSLWQWMVLPLLDVSDRFWLQMVAWWGQGSRAIVAFDNISISLDCYLTISGEDKILQNTAPKSRNLFERNPNKELKPGENSPRQTPIFDPTVHWLFTTCGASGPHGPTQAQCNNAYQNSNLSVEVGSEGPLKGIQIWKVPATDTYSISGYGAAGGKGGKNTMMRSHGVSVLGIFNLEKDDMLYILVGQQGEDACPSTNQLIQKVCIGENNVIEEEIRVNRSVHEWAGGGGGGGGATYVFKMKDGVPVPLIIAAGGGGRAYGAKTDTFHPERLENNSSVLGLNGNSGAAGGGGGWNDNTSLLWAGKSLQEGATGGHSCPQAMKKWGWETRGGFGGGGGGCSSGGGGGGYIGGNAASNNDPEMDGEDGVSFISPLGILYTPALKVMEGHGEVNIKHYLNCSHCEVDECHMDPESHKVICFCDHGTVLAEDGVSCIVSPTPEPHLPLSLILSVVTSALVAALVLAFSGIMIVYRRKHQELQAMQMELQSPEYKLSKLRTSTIMTDYNPNYCFAGKTSSISDLKEVPRKNITLIRGLGHGAFGEVYEGQVSGMPNDPSPLQVAVKTLPEVCSEQDELDFLMEALIISKFNHQNIVRCIGVSLQSLPRFILLELMAGGDLKSFLRETRPRPSQPSSLAMLDLLHVARDIACGCQYLEENHFIHRDIAARNCLLTCPGPGRVAKIGDFGMARDIYRASYYRKGGCAMLPVKWMPPEAFMEGIFTSKTDTWSFGVLLWEIFSLGYMPYPSKSNQEVLEFVTSGGRMDPPKNCPGPVYRIMTQCWQHQPEDRPNFAIILERIEYCTQDPDVINTALPIEYGPLVEEEEKVPVRPKDPEGVPPLLVSQQAKREEERSPAAPPPLPTTSSGKAAKKPTAAEISVRVPRGPAVEGGHVNMAFSQSNPPSELHKVHGSRNKPTSLWNPTYGSWFTEKPTKKNNPIAKKEPHDRGNLGLEGSCTVPPNVATGRLPGASLLLEPSSLTANMKEVPLFRLRHFPCGNVNYGYQQQGLPLEAATAPGAGHYEDTILKSKNSMNQPGP

> <PDB ID(s) of Target Chain>
2XB7,2XBA,3AOX,5FTO,5FTQ,6E0R,6EBW,6EDL,6MX8

> <UniProt (SwissProt) Recommended Name of Target Chain>
ALK tyrosine kinase receptor

> <UniProt (SwissProt) Entry Name of Target Chain>
ALK_HUMAN

> <UniProt (SwissProt) Primary ID of Target Chain>
Q9UM73

> <UniProt (SwissProt) Secondary ID(s) of Target Chain>
Q4ZFX9,Q53QQ6,Q53RZ4,Q59FI3,Q9Y4K6

> <UniProt (SwissProt) Alternative ID(s) of Target Chain>


> <UniProt (TrEMBL) Submitted Name of Target Chain>


> <UniProt (TrEMBL) Entry Name of Target Chain>


> <UniProt (TrEMBL) Primary ID of Target Chain>


> <UniProt (TrEMBL) Secondary ID(s) of Target Chain>


> <UniProt (TrEMBL) Alternative ID(s) of Target Chain>


$$$$

  SciTegic12191611462D

 40 43  0  0  0  0            999 V2000
   -6.5121    1.4924    0.0000 C   0  0
   -6.5141    2.6924    0.0000 C   0  0
   -7.5506    0.8910    0.0000 O   0  0
   -5.2109    0.7445    0.0000 N   0  0
   -3.9122    1.4966    0.0000 N   0  0
   -1.2964    1.4973    0.0000 C   0  0
   -2.6111    0.7486    0.0000 C   0  0
   -2.6111   -0.7486    0.0000 C   0  0
   -1.2964   -1.4973    0.0000 C   0  0
    0.0000   -0.7486    0.0000 C   0  0
    1.2964   -1.4973    0.0000 C   0  0
    2.5929   -0.7486    0.0000 C   0  0
    2.5929    0.7486    0.0000 C   0  0
    1.2964    1.4973    0.0000 C   0  0
    0.0000    0.7486    0.0000 C   0  0
   -0.2414    2.0691    0.0000 C   0  0
   -2.3479    2.0756    0.0000 C   0  0
    3.8911   -1.5017    0.0000 O   0  0
    3.8894   -2.7017    0.0000 C   0  0
    3.8911    1.5017    0.0000 N   0  0
    3.8890    3.0026    0.0000 C   0  0
    5.1854    3.7571    0.0000 N   0  0
    5.1802    5.2571    0.0000 C   0  0
    3.8786    6.0026    0.0000 C   0  0
    2.5821    5.2482    0.0000 C   0  0
    2.5873    3.7482    0.0000 N   0  0
    6.4789    6.0094    0.0000 N   0  0
    7.7802    5.2616    0.0000 C   0  0
    9.0793    6.0115    0.0000 C   0  0
   10.3783    5.2615    0.0000 C   0  0
   10.3783    3.7615    0.0000 C   0  0
    9.0793    3.0115    0.0000 C   0  0
    7.7803    3.7615    0.0000 C   0  0
    9.0794    7.5124    0.0000 S   0  0
    7.7801    8.2636    0.0000 C   0  0
    7.7802    9.4636    0.0000 C   0  0
    6.7407    7.6640    0.0000 C   0  0
    3.8744    7.2026    0.0000 Cl  0  0
    9.0800    8.7124    0.0000 O   0  0
   10.1188    8.1120    0.0000 O   0  0
  1  2  1  0
  4  5  1  0
  1  3  2  0
  1  4  1  0
  6  7  1  0
  7  8  1  0
  8  9  1  0
  9 10  1  0
 10 11  1  0
 11 12  2  0
 12 13  1  0
 13 14  2  0
 14 15  1  0
  6 15  1  0
 10 15  2  0
  6 16  1  0
  6 17  1  0
 18 19  1  0
 12 18  1  0
 21 22  1  0
 22 23  2  0
 23 24  1  0
 24 25  2  0
 25 26  1  0
 21 26  2  0
 28 29  1  0
 29 30  2  0
 30 31  1  0
 31 32  2  0
 32 33  1  0
 28 33  2  0
 35 36  1  0
 35 37  1  0
 34 35  1  0
 29 34  1  0
 27 28  1  0
 23 27  1  0
 24 38  1  0
 20 21  1  0
 13 20  1  0
  5  7  2  0
 34 39  2  0
 34 40  2  0
M  END
> <From>
www.bindingDB.org

> <BindingDB Reactant_set_id>
50484643

> <Ligand InChI>
InChI=1S/C28H33ClN6O4S/c1-16(2)40(37,38)24-10-8-7-9-21(24)31-26-20(29)15-30-27(33-26)32-22-14-19-18(13-23(22)39-6)11-12-25(28(19,4)5)35-34-17(3)36/h7-10,13-16H,11-12H2,1-6H3,(H,34,36)(H2,30,31,32,33)/b35-25+

> <Ligand InChI Key>
VSDUCKLXBOURDZ-KVQDIILNSA-N

> <BindingDB MonomerID>
50157323

> <BindingDB Ligand Name>
CHEMBL3787262

> <Target Name Assigned by Curator or DataSource>
ALK tyrosine kinase receptor

> <Target Source Organism According to Curator or DataSource>
Homo sapiens

> <Ki (nM)>


> <IC50 (nM)>
 201

> <Kd (nM)>


> <EC50 (nM)>


> <kon (M-1-s-1)>


> <koff (s-1)>


> <pH>


> <Temp C>


> <Curation/DataSource>
ChEMBL

> <Article DOI>
10.1016/j.bmcl.2016.02.052

> <PMID>
26923695

> <PubChem AID>


> <Patent Number>


> <Authors>
Song, D; Lee, M; Park, CH; Ahn, S; Yun, CS; Lee, CO; Kim, HR; Hwang, JY

> <Institution>
Chungbuk National University

> <Link to Ligand in BindingDB>
http://www.bindingdb.org/bind/chemsearch/marvin/MolStructure.jsp?monomerid=50157323

> <Link to Ligand-Target Pair in BindingDB>
http://www.bindingdb.org/jsp/dbsearch/PrimarySearch_ki.jsp?energyterm=kJ/mole&tag=pol&polymerid=5809&target=ALK+tyrosine+kinase+receptor&column=ki&startPg=0&Increment=50&submit=Search

> <Link to Ligand-Target Pair in BindingDB>
http://www.bindingdb.org/jsp/dbsearch/PrimarySearch_ki.jsp?energyterm=kJ/mole&tag=r21&monomerid=50157323&enzyme=ALK+tyrosine+kinase+receptor&column=ki&startPg=0&Increment=50&submit=Search

> <Ligand HET ID in PDB>


> <PDB ID(s) for Ligand-Target Complex>


> <PubChem CID>
127031881

> <PubChem SID>
340134037

> <ChEBI ID of Ligand>


> <ChEMBL ID of Ligand>
CHEMBL3787262

> <DrugBank ID of Ligand>


> <IUPHAR_GRAC ID of Ligand>


> <KEGG ID of Ligand>


> <ZINC ID of Ligand>


> <Number of Protein Chains in Target (>1 implies a multichain complex)>
1

> <BindingDB Target Chain Sequence>
MGAIGLLWLLPLLLSTAAVGSGMGTGQRAGSPAAGPPLQPREPLSYSRLQRKSLAVDFVVPSLFRVYARDLLLPPSSSELKAGRPEARGSLALDCAPLLRLLGPAPGVSWTAGSPAPAEARTLSRVLKGGSVRKLRRAKQLVLELGEEAILEGCVGPPGEAAVGLLQFNLSELFSWWIRQGEGRLRIRLMPEKKASEVGREGRLSAAIRASQPRLLFQIFGTGHSSLESPTNMPSPSPDYFTWNLTWIMKDSFPFLSHRSRYGLECSFDFPCELEYSPPLHDLRNQSWSWRRIPSEEASQMDLLDGPGAERSKEMPRGSFLLLNTSADSKHTILSPWMRSSSEHCTLAVSVHRHLQPSGRYIAQLLPHNEAAREILLMPTPGKHGWTVLQGRIGRPDNPFRVALEYISSGNRSLSAVDFFALKNCSEGTSPGSKMALQSSFTCWNGTVLQLGQACDFHQDCAQGEDESQMCRKLPVGFYCNFEDGFCGWTQGTLSPHTPQWQVRTLKDARFQDHQDHALLLSTTDVPASESATVTSATFPAPIKSSPCELRMSWLIRGVLRGNVSLVLVENKTGKEQGRMVWHVAAYEGLSLWQWMVLPLLDVSDRFWLQMVAWWGQGSRAIVAFDNISISLDCYLTISGEDKILQNTAPKSRNLFERNPNKELKPGENSPRQTPIFDPTVHWLFTTCGASGPHGPTQAQCNNAYQNSNLSVEVGSEGPLKGIQIWKVPATDTYSISGYGAAGGKGGKNTMMRSHGVSVLGIFNLEKDDMLYILVGQQGEDACPSTNQLIQKVCIGENNVIEEEIRVNRSVHEWAGGGGGGGGATYVFKMKDGVPVPLIIAAGGGGRAYGAKTDTFHPERLENNSSVLGLNGNSGAAGGGGGWNDNTSLLWAGKSLQEGATGGHSCPQAMKKWGWETRGGFGGGGGGCSSGGGGGGYIGGNAASNNDPEMDGEDGVSFISPLGILYTPALKVMEGHGEVNIKHYLNCSHCEVDECHMDPESHKVICFCDHGTVLAEDGVSCIVSPTPEPHLPLSLILSVVTSALVAALVLAFSGIMIVYRRKHQELQAMQMELQSPEYKLSKLRTSTIMTDYNPNYCFAGKTSSISDLKEVPRKNITLIRGLGHGAFGEVYEGQVSGMPNDPSPLQVAVKTLPEVCSEQDELDFLMEALIISKFNHQNIVRCIGVSLQSLPRFILLELMAGGDLKSFLRETRPRPSQPSSLAMLDLLHVARDIACGCQYLEENHFIHRDIAARNCLLTCPGPGRVAKIGDFGMARDIYRASYYRKGGCAMLPVKWMPPEAFMEGIFTSKTDTWSFGVLLWEIFSLGYMPYPSKSNQEVLEFVTSGGRMDPPKNCPGPVYRIMTQCWQHQPEDRPNFAIILERIEYCTQDPDVINTALPIEYGPLVEEEEKVPVRPKDPEGVPPLLVSQQAKREEERSPAAPPPLPTTSSGKAAKKPTAAEISVRVPRGPAVEGGHVNMAFSQSNPPSELHKVHGSRNKPTSLWNPTYGSWFTEKPTKKNNPIAKKEPHDRGNLGLEGSCTVPPNVATGRLPGASLLLEPSSLTANMKEVPLFRLRHFPCGNVNYGYQQQGLPLEAATAPGAGHYEDTILKSKNSMNQPGP

> <PDB ID(s) of Target Chain>
2XB7,2XBA,3AOX,5FTO,5FTQ,6E0R,6EBW,6EDL,6MX8

> <UniProt (SwissProt) Recommended Name of Target Chain>
ALK tyrosine kinase receptor

> <UniProt (SwissProt) Entry Name of Target Chain>
ALK_HUMAN

> <UniProt (SwissProt) Primary ID of Target Chain>
Q9UM73

> <UniProt (SwissProt) Secondary ID(s) of Target Chain>
Q4ZFX9,Q53QQ6,Q53RZ4,Q59FI3,Q9Y4K6

> <UniProt (SwissProt) Alternative ID(s) of Target Chain>


> <UniProt (TrEMBL) Submitted Name of Target Chain>


> <UniProt (TrEMBL) Entry Name of Target Chain>


> <UniProt (TrEMBL) Primary ID of Target Chain>


> <UniProt (TrEMBL) Secondary ID(s) of Target Chain>


> <UniProt (TrEMBL) Alternative ID(s) of Target Chain>


$$$$
BindingDB_50157326

Vconf v2.0 Academic SN VC001-00000245
 61 62  0  0  0  0  0  0  0  0999 V2000
    3.2440   -2.9140   -0.1870 C   0  0  0  0  0  0  0  0  0  0  0
    4.1830   -2.7970   -1.1510 N   0  0  0  0  0  0  0  0  0  0  0
   -2.2900   -2.2440    0.8000 C   0  0  0  0  0  0  0  0  0  0  0
    4.4450   -3.8030   -2.1260 C   0  0  2  0  0  0  0  0  0  0  0
    3.0500   -1.8110    0.7710 C   0  0  2  0  0  0  0  0  0  0  0
    5.6970   -3.4520   -2.8200 C   0  0  0  0  0  0  0  0  0  0  0
   -1.9700   -3.9480    0.8170 S   0  0  0  0  0  0  0  0  0  0  0
   -1.0500   -1.0350    0.7300 S   0  0  0  0  0  0  0  0  0  0  0
    2.5610   -3.9580   -0.0890 O   0  0  0  0  0  0  0  0  0  0  0
   -3.6400   -1.9240    0.8440 C   0  0  0  0  0  0  0  0  0  0  0
   -3.6800   -4.2200    0.8820 C   0  0  0  0  0  0  0  0  0  0  0
    3.2560   -3.9240   -3.1150 C   0  0  0  0  0  0  0  0  0  0  0
    3.2240   -2.2900    2.2320 C   0  0  0  0  0  0  0  0  0  0  0
    6.6850   -4.2170   -2.7360 O   0  0  0  0  0  0  0  0  0  0  0
   -4.4380   -3.0560    0.8910 C   0  0  0  0  0  0  0  0  0  0  0
    0.4620   -2.0150    0.6820 C   0  0  0  0  0  0  0  0  0  0  0
    1.6890   -1.0880    0.5810 C   0  0  2  0  0  0  0  0  0  0  0
    5.7710   -2.3130   -3.5410 N   0  0  0  0  0  0  0  0  0  0  0
    3.4260   -5.0050   -4.1090 C   0  0  0  0  0  0  0  0  0  0  0
    4.6140   -2.8940    2.5360 C   0  0  0  0  0  0  0  0  0  0  0
    6.9410   -1.9210   -4.2370 C   0  0  0  0  0  0  0  0  0  0  0
    1.6620   -0.3380   -0.7640 C   0  0  0  0  0  0  0  0  0  0  0
    3.5420   -4.7070   -5.4830 C   0  0  0  0  0  0  0  0  0  0  0
    3.4670   -6.3510   -3.6920 C   0  0  0  0  0  0  0  0  0  0  0
    5.7480   -1.8850    2.2910 C   0  0  0  0  0  0  0  0  0  0  0
    4.6550   -3.3570    4.0010 C   0  0  0  0  0  0  0  0  0  0  0
    3.6270   -7.3830   -4.6330 C   0  0  0  0  0  0  0  0  0  0  0
    3.7020   -5.7390   -6.4240 C   0  0  0  0  0  0  0  0  0  0  0
    3.7440   -7.0770   -5.9990 C   0  0  0  0  0  0  0  0  0  0  0
    3.8180   -1.0600    0.5870 H   0  0  0  0  0  0  0  0  0  0  0
    1.6020   -0.3390    1.3700 H   0  0  0  0  0  0  0  0  0  0  0
    4.5910   -4.7560   -1.6110 H   0  0  0  0  0  0  0  0  0  0  0
    4.7230   -1.9920   -1.1650 H   0  0  0  0  0  0  0  0  0  0  0
   -4.0020   -0.9700    0.8410 H   0  0  0  0  0  0  0  0  0  0  0
   -4.0930   -5.1520    0.9110 H   0  0  0  0  0  0  0  0  0  0  0
    2.3420   -4.1290   -2.5550 H   0  0  0  0  0  0  0  0  0  0  0
    3.1200   -2.9640   -3.6170 H   0  0  0  0  0  0  0  0  0  0  0
    3.0640   -1.4400    2.8970 H   0  0  0  0  0  0  0  0  0  0  0
    2.4700   -3.0450    2.4560 H   0  0  0  0  0  0  0  0  0  0  0
   -5.4570   -3.0370    0.9270 H   0  0  0  0  0  0  0  0  0  0  0
    0.5170   -2.6110    1.5930 H   0  0  0  0  0  0  0  0  0  0  0
    0.4250   -2.6810   -0.1810 H   0  0  0  0  0  0  0  0  0  0  0
    4.9860   -1.7460   -3.5900 H   0  0  0  0  0  0  0  0  0  0  0
    4.7770   -3.7660    1.9020 H   0  0  0  0  0  0  0  0  0  0  0
    6.7570   -0.9740   -4.7450 H   0  0  0  0  0  0  0  0  0  0  0
    7.7690   -1.7960   -3.5370 H   0  0  0  0  0  0  0  0  0  0  0
    7.2050   -2.6770   -4.9780 H   0  0  0  0  0  0  0  0  0  0  0
    0.7530    0.2590   -0.8350 H   0  0  0  0  0  0  0  0  0  0  0
    2.5250    0.3260   -0.8330 H   0  0  0  0  0  0  0  0  0  0  0
    1.6880   -1.0470   -1.5920 H   0  0  0  0  0  0  0  0  0  0  0
    3.5140   -3.7370   -5.8000 H   0  0  0  0  0  0  0  0  0  0  0
    3.3810   -6.5810   -2.7020 H   0  0  0  0  0  0  0  0  0  0  0
    6.6950   -2.3110    2.6250 H   0  0  0  0  0  0  0  0  0  0  0
    5.8260   -1.6610    1.2270 H   0  0  0  0  0  0  0  0  0  0  0
    5.5540   -0.9650    2.8430 H   0  0  0  0  0  0  0  0  0  0  0
    5.6200   -3.8180    4.2140 H   0  0  0  0  0  0  0  0  0  0  0
    4.5090   -2.5040    4.6650 H   0  0  0  0  0  0  0  0  0  0  0
    3.8660   -4.0890    4.1770 H   0  0  0  0  0  0  0  0  0  0  0
    3.6570   -8.3550   -4.3230 H   0  0  0  0  0  0  0  0  0  0  0
    3.7870   -5.5150   -7.4160 H   0  0  0  0  0  0  0  0  0  0  0
    3.8600   -7.8260   -6.6820 H   0  0  0  0  0  0  0  0  0  0  0
  1  2  1  0  0  0  0
  1  5  1  0  0  0  0
  1  9  2  0  0  0  0
  2  4  1  0  0  0  0
  2 33  1  0  0  0  0
  3  7  1  0  0  0  0
  3  8  1  0  0  0  0
  3 10  2  0  0  0  0
  4  6  1  0  0  0  0
  4 12  1  0  0  0  0
  4 32  1  6  0  0  0
  5 13  1  0  0  0  0
  5 17  1  0  0  0  0
  5 30  1  6  0  0  0
  6 14  2  0  0  0  0
  6 18  1  0  0  0  0
  7 11  1  0  0  0  0
  8 16  1  0  0  0  0
 10 15  1  0  0  0  0
 10 34  1  0  0  0  0
 11 15  2  0  0  0  0
 11 35  1  0  0  0  0
 12 19  1  0  0  0  0
 12 36  1  0  0  0  0
 12 37  1  0  0  0  0
 13 20  1  0  0  0  0
 13 38  1  0  0  0  0
 13 39  1  0  0  0  0
 15 40  1  0  0  0  0
 16 17  1  0  0  0  0
 16 41  1  0  0  0  0
 16 42  1  0  0  0  0
 17 22  1  0  0  0  0
 17 31  1  6  0  0  0
 18 21  1  0  0  0  0
 18 43  1  0  0  0  0
 19 23  2  0  0  0  0
 19 24  1  0  0  0  0
 20 25  1  0  0  0  0
 20 26  1  0  0  0  0
 20 44  1  0  0  0  0
 21 45  1  0  0  0  0
 21 46  1  0  0  0  0
 21 47  1  0  0  0  0
 22 48  1  0  0  0  0
 22 49  1  0  0  0  0
 22 50  1  0  0  0  0
 23 28  1  0  0  0  0
 23 51  1  0  0  0  0
 24 27  2  0  0  0  0
 24 52  1  0  0  0  0
 25 53  1  0  0  0  0
 25 54  1  0  0  0  0
 25 55  1  0  0  0  0
 26 56  1  0  0  0  0
 26 57  1  0  0  0  0
 26 58  1  0  0  0  0
 27 29  1  0  0  0  0
 27 59  1  0  0  0  0
 28 29  2  0  0  0  0
 28 60  1  0  0  0  0
 29 61  1  0  0  0  0
M  END
> <From>
www.bindingDB.org

> <BindingDB Reactant_set_id>
50484644

> <Ligand InChI>
InChI=1S/C27H32ClN7O4S/c1-15(2)40(37,38)22-9-7-6-8-19(22)31-24-18(28)14-30-26(33-24)32-20-13-17-16(12-21(20)39-5)10-11-23(27(17,3)4)34-35-25(29)36/h6-9,12-15H,10-11H2,1-5H3,(H3,29,35,36)(H2,30,31,32,33)/b34-23+

> <Ligand InChI Key>
HLXVNSXZZFVZLJ-PPFNPFNJSA-N

> <BindingDB MonomerID>
50157326

> <BindingDB Ligand Name>
CHEMBL3785115

> <Target Name Assigned by Curator or DataSource>
ALK tyrosine kinase receptor

> <Target Source Organism According to Curator or DataSource>
Homo sapiens

> <Ki (nM)>


> <IC50 (nM)>
 97

> <Kd (nM)>


> <EC50 (nM)>


> <kon (M-1-s-1)>


> <koff (s-1)>


> <pH>


> <Temp C>


> <Curation/DataSource>
ChEMBL

> <Article DOI>
10.1016/j.bmcl.2016.02.052

> <PMID>
26923695

> <PubChem AID>


> <Patent Number>


> <Authors>
Song, D; Lee, M; Park, CH; Ahn, S; Yun, CS; Lee, CO; Kim, HR; Hwang, JY

> <Institution>
Chungbuk National University

> <Link to Ligand in BindingDB>
http://www.bindingdb.org/bind/chemsearch/marvin/MolStructure.jsp?monomerid=50157326

> <Link to Ligand-Target Pair in BindingDB>
http://www.bindingdb.org/jsp/dbsearch/PrimarySearch_ki.jsp?energyterm=kJ/mole&tag=pol&polymerid=5809&target=ALK+tyrosine+kinase+receptor&column=ki&startPg=0&Increment=50&submit=Search

> <Link to Ligand-Target Pair in BindingDB>
http://www.bindingdb.org/jsp/dbsearch/PrimarySearch_ki.jsp?energyterm=kJ/mole&tag=r21&monomerid=50157326&enzyme=ALK+tyrosine+kinase+receptor&column=ki&startPg=0&Increment=50&submit=Search

> <Ligand HET ID in PDB>


> <PDB ID(s) for Ligand-Target Complex>


> <PubChem CID>
127032144

> <PubChem SID>
104044325

> <ChEBI ID of Ligand>


> <ChEMBL ID of Ligand>
CHEMBL3785115

> <DrugBank ID of Ligand>


> <IUPHAR_GRAC ID of Ligand>


> <KEGG ID of Ligand>


> <ZINC ID of Ligand>
ZINC28339280

> <Number of Protein Chains in Target (>1 implies a multichain complex)>
1

> <BindingDB Target Chain Sequence>
MGAIGLLWLLPLLLSTAAVGSGMGTGQRAGSPAAGPPLQPREPLSYSRLQRKSLAVDFVVPSLFRVYARDLLLPPSSSELKAGRPEARGSLALDCAPLLRLLGPAPGVSWTAGSPAPAEARTLSRVLKGGSVRKLRRAKQLVLELGEEAILEGCVGPPGEAAVGLLQFNLSELFSWWIRQGEGRLRIRLMPEKKASEVGREGRLSAAIRASQPRLLFQIFGTGHSSLESPTNMPSPSPDYFTWNLTWIMKDSFPFLSHRSRYGLECSFDFPCELEYSPPLHDLRNQSWSWRRIPSEEASQMDLLDGPGAERSKEMPRGSFLLLNTSADSKHTILSPWMRSSSEHCTLAVSVHRHLQPSGRYIAQLLPHNEAAREILLMPTPGKHGWTVLQGRIGRPDNPFRVALEYISSGNRSLSAVDFFALKNCSEGTSPGSKMALQSSFTCWNGTVLQLGQACDFHQDCAQGEDESQMCRKLPVGFYCNFEDGFCGWTQGTLSPHTPQWQVRTLKDARFQDHQDHALLLSTTDVPASESATVTSATFPAPIKSSPCELRMSWLIRGVLRGNVSLVLVENKTGKEQGRMVWHVAAYEGLSLWQWMVLPLLDVSDRFWLQMVAWWGQGSRAIVAFDNISISLDCYLTISGEDKILQNTAPKSRNLFERNPNKELKPGENSPRQTPIFDPTVHWLFTTCGASGPHGPTQAQCNNAYQNSNLSVEVGSEGPLKGIQIWKVPATDTYSISGYGAAGGKGGKNTMMRSHGVSVLGIFNLEKDDMLYILVGQQGEDACPSTNQLIQKVCIGENNVIEEEIRVNRSVHEWAGGGGGGGGATYVFKMKDGVPVPLIIAAGGGGRAYGAKTDTFHPERLENNSSVLGLNGNSGAAGGGGGWNDNTSLLWAGKSLQEGATGGHSCPQAMKKWGWETRGGFGGGGGGCSSGGGGGGYIGGNAASNNDPEMDGEDGVSFISPLGILYTPALKVMEGHGEVNIKHYLNCSHCEVDECHMDPESHKVICFCDHGTVLAEDGVSCIVSPTPEPHLPLSLILSVVTSALVAALVLAFSGIMIVYRRKHQELQAMQMELQSPEYKLSKLRTSTIMTDYNPNYCFAGKTSSISDLKEVPRKNITLIRGLGHGAFGEVYEGQVSGMPNDPSPLQVAVKTLPEVCSEQDELDFLMEALIISKFNHQNIVRCIGVSLQSLPRFILLELMAGGDLKSFLRETRPRPSQPSSLAMLDLLHVARDIACGCQYLEENHFIHRDIAARNCLLTCPGPGRVAKIGDFGMARDIYRASYYRKGGCAMLPVKWMPPEAFMEGIFTSKTDTWSFGVLLWEIFSLGYMPYPSKSNQEVLEFVTSGGRMDPPKNCPGPVYRIMTQCWQHQPEDRPNFAIILERIEYCTQDPDVINTALPIEYGPLVEEEEKVPVRPKDPEGVPPLLVSQQAKREEERSPAAPPPLPTTSSGKAAKKPTAAEISVRVPRGPAVEGGHVNMAFSQSNPPSELHKVHGSRNKPTSLWNPTYGSWFTEKPTKKNNPIAKKEPHDRGNLGLEGSCTVPPNVATGRLPGASLLLEPSSLTANMKEVPLFRLRHFPCGNVNYGYQQQGLPLEAATAPGAGHYEDTILKSKNSMNQPGP

> <PDB ID(s) of Target Chain>
2XB7,2XBA,3AOX,5FTO,5FTQ,6E0R,6EBW,6EDL,6MX8

> <UniProt (SwissProt) Recommended Name of Target Chain>
ALK tyrosine kinase receptor

> <UniProt (SwissProt) Entry Name of Target Chain>
ALK_HUMAN

> <UniProt (SwissProt) Primary ID of Target Chain>
Q9UM73

> <UniProt (SwissProt) Secondary ID(s) of Target Chain>
Q4ZFX9,Q53QQ6,Q53RZ4,Q59FI3,Q9Y4K6

> <UniProt (SwissProt) Alternative ID(s) of Target Chain>


> <UniProt (TrEMBL) Submitted Name of Target Chain>


> <UniProt (TrEMBL) Entry Name of Target Chain>


> <UniProt (TrEMBL) Primary ID of Target Chain>


> <UniProt (TrEMBL) Secondary ID(s) of Target Chain>


> <UniProt (TrEMBL) Alternative ID(s) of Target Chain>


$$$$
BindingDB_50157336

Vconf v2.0 Academic SN VC001-00000245
 57 60  0  0  0  0  0  0  0  0999 V2000
   -1.6780   -0.0840    0.1720 N   0  0  0  0  0  0  0  0  0  0  0
   -2.5870    0.6200   -0.5700 C   0  0  0  0  0  0  0  0  0  0  0
    6.0400    4.3250    4.5570 N   0  0  0  0  0  0  0  0  0  0  0
   -0.0460    0.3070    1.9250 C   0  0  0  0  0  0  0  0  0  0  0
   -0.3720    0.4270    0.4870 C   0  0  0  0  0  0  0  0  0  0  0
    6.6310    4.8540    3.4540 C   0  0  0  0  0  0  0  0  0  0  0
   -2.3170    1.7930   -1.0750 N   0  0  0  0  0  0  0  0  0  0  0
   -0.8110   -0.5230    2.7750 C   0  0  0  0  0  0  0  0  0  0  0
   -1.9670   -1.3790    0.7060 C   0  0  0  0  0  0  0  0  0  0  0
    1.0460    1.0240    2.4540 C   0  0  0  0  0  0  0  0  0  0  0
    6.4330    3.0520    5.0630 C   0  0  0  0  0  0  0  0  0  0  0
    4.9780    5.0040    5.2220 C   0  0  0  0  0  0  0  0  0  0  0
    6.1370    4.5730    2.1620 C   0  0  0  0  0  0  0  0  0  0  0
   -1.9390   -1.3140    2.2450 C   0  0  0  0  0  0  0  0  0  0  0
   -3.8160    0.1520   -0.8300 N   0  0  0  0  0  0  0  0  0  0  0
   -0.5020   -0.5870    4.1480 C   0  0  0  0  0  0  0  0  0  0  0
    1.3640    0.9530    3.8220 C   0  0  0  0  0  0  0  0  0  0  0
    2.4300    1.6900    4.2490 O   0  0  0  0  0  0  0  0  0  0  0
    5.0680    3.7760    1.9950 N   0  0  0  0  0  0  0  0  0  0  0
    0.5780    0.1450    4.6680 C   0  0  0  0  0  0  0  0  0  0  0
    5.2280    2.0990    5.0340 C   0  0  0  0  0  0  0  0  0  0  0
    3.7190    4.1240    5.1990 C   0  0  0  0  0  0  0  0  0  0  0
    2.7890    1.8120    5.6300 C   0  0  0  0  0  0  0  0  0  0  0
    4.0220    2.7230    5.7640 C   0  0  0  0  0  0  0  0  0  0  0
    7.7500    5.6950    3.6050 C   0  0  0  0  0  0  0  0  0  0  0
    6.7640    5.1320    1.0330 C   0  0  0  0  0  0  0  0  0  0  0
    8.3730    6.2530    2.4750 C   0  0  0  0  0  0  0  0  0  0  0
    7.8800    5.9710    1.1900 C   0  0  0  0  0  0  0  0  0  0  0
   -0.2770    1.4760    0.2000 H   0  0  0  0  0  0  0  0  0  0  0
    0.3680   -0.1420   -0.0780 H   0  0  0  0  0  0  0  0  0  0  0
   -1.4810    2.1860   -0.9400 H   0  0  0  0  0  0  0  0  0  0  0
   -2.9370   -1.7660    0.3940 H   0  0  0  0  0  0  0  0  0  0  0
   -1.2020   -2.0780    0.3640 H   0  0  0  0  0  0  0  0  0  0  0
    1.6080    1.6140    1.8400 H   0  0  0  0  0  0  0  0  0  0  0
    6.7730    3.1670    6.0930 H   0  0  0  0  0  0  0  0  0  0  0
    7.2430    2.6130    4.4760 H   0  0  0  0  0  0  0  0  0  0  0
    5.2660    5.1890    6.2580 H   0  0  0  0  0  0  0  0  0  0  0
    4.7480    5.9610    4.7470 H   0  0  0  0  0  0  0  0  0  0  0
   -1.8780   -2.3370    2.6220 H   0  0  0  0  0  0  0  0  0  0  0
   -2.8710   -0.8690    2.5970 H   0  0  0  0  0  0  0  0  0  0  0
   -4.4280    0.6870   -1.3590 H   0  0  0  0  0  0  0  0  0  0  0
   -4.0960   -0.7100   -0.4910 H   0  0  0  0  0  0  0  0  0  0  0
   -1.0600   -1.1730    4.7690 H   0  0  0  0  0  0  0  0  0  0  0
    4.7340    3.5850    1.1050 H   0  0  0  0  0  0  0  0  0  0  0
    4.6290    3.3930    2.7720 H   0  0  0  0  0  0  0  0  0  0  0
    0.7900    0.0820    5.6630 H   0  0  0  0  0  0  0  0  0  0  0
    4.9630    1.8930    3.9970 H   0  0  0  0  0  0  0  0  0  0  0
    5.5000    1.1610    5.5200 H   0  0  0  0  0  0  0  0  0  0  0
    3.3670    4.0370    4.1700 H   0  0  0  0  0  0  0  0  0  0  0
    2.9390    4.5970    5.7980 H   0  0  0  0  0  0  0  0  0  0  0
    1.9630    2.2500    6.1930 H   0  0  0  0  0  0  0  0  0  0  0
    3.0270    0.8310    6.0440 H   0  0  0  0  0  0  0  0  0  0  0
    4.2690    2.8210    6.8220 H   0  0  0  0  0  0  0  0  0  0  0
    8.1120    5.9010    4.5360 H   0  0  0  0  0  0  0  0  0  0  0
    6.4110    4.9300    0.0970 H   0  0  0  0  0  0  0  0  0  0  0
    9.1830    6.8630    2.5880 H   0  0  0  0  0  0  0  0  0  0  0
    8.3330    6.3760    0.3700 H   0  0  0  0  0  0  0  0  0  0  0
  1  2  1  0  0  0  0
  1  5  1  0  0  0  0
  1  9  1  0  0  0  0
  2  7  2  0  0  0  0
  2 15  1  0  0  0  0
  3  6  1  0  0  0  0
  3 11  1  0  0  0  0
  3 12  1  0  0  0  0
  4  5  1  0  0  0  0
  4  8  2  0  0  0  0
  4 10  1  0  0  0  0
  5 29  1  0  0  0  0
  5 30  1  0  0  0  0
  6 13  2  0  0  0  0
  6 25  1  0  0  0  0
  7 31  1  0  0  0  0
  8 14  1  0  0  0  0
  8 16  1  0  0  0  0
  9 14  1  0  0  0  0
  9 32  1  0  0  0  0
  9 33  1  0  0  0  0
 10 17  2  0  0  0  0
 10 34  1  0  0  0  0
 11 21  1  0  0  0  0
 11 35  1  0  0  0  0
 11 36  1  0  0  0  0
 12 22  1  0  0  0  0
 12 37  1  0  0  0  0
 12 38  1  0  0  0  0
 13 19  1  0  0  0  0
 13 26  1  0  0  0  0
 14 39  1  0  0  0  0
 14 40  1  0  0  0  0
 15 41  1  0  0  0  0
 15 42  1  0  0  0  0
 16 20  2  0  0  0  0
 16 43  1  0  0  0  0
 17 18  1  0  0  0  0
 17 20  1  0  0  0  0
 18 23  1  0  0  0  0
 19 44  1  0  0  0  0
 19 45  1  0  0  0  0
 20 46  1  0  0  0  0
 21 24  1  0  0  0  0
 21 47  1  0  0  0  0
 21 48  1  0  0  0  0
 22 24  1  0  0  0  0
 22 49  1  0  0  0  0
 22 50  1  0  0  0  0
 23 24  1  0  0  0  0
 23 51  1  0  0  0  0
 23 52  1  0  0  0  0
 24 53  1  0  0  0  0
 25 27  2  0  0  0  0
 25 54  1  0  0  0  0
 26 28  2  0  0  0  0
 26 55  1  0  0  0  0
 27 28  1  0  0  0  0
 27 56  1  0  0  0  0
 28 57  1  0  0  0  0
M  END
> <From>
www.bindingDB.org

> <BindingDB Reactant_set_id>
50484645

> <Ligand InChI>
InChI=1S/C22H29N5O/c23-20-3-1-2-4-21(20)26-10-7-16(8-11-26)15-28-19-6-5-17-9-12-27(22(24)25)14-18(17)13-19/h1-6,13,16H,7-12,14-15,23H2,(H3,24,25)

> <Ligand InChI Key>
UHUZMOLBOOQOEK-UHFFFAOYSA-N

> <BindingDB MonomerID>
50157336

> <BindingDB Ligand Name>
CHEMBL3785093

> <Target Name Assigned by Curator or DataSource>
ALK tyrosine kinase receptor

> <Target Source Organism According to Curator or DataSource>
Homo sapiens

> <Ki (nM)>


> <IC50 (nM)>
 100

> <Kd (nM)>


> <EC50 (nM)>


> <kon (M-1-s-1)>


> <koff (s-1)>


> <pH>


> <Temp C>


> <Curation/DataSource>
ChEMBL

> <Article DOI>
10.1016/j.bmcl.2016.02.052

> <PMID>
26923695

> <PubChem AID>


> <Patent Number>


> <Authors>
Song, D; Lee, M; Park, CH; Ahn, S; Yun, CS; Lee, CO; Kim, HR; Hwang, JY

> <Institution>
Chungbuk National University

> <Link to Ligand in BindingDB>
http://www.bindingdb.org/bind/chemsearch/marvin/MolStructure.jsp?monomerid=50157336

> <Link to Ligand-Target Pair in BindingDB>
http://www.bindingdb.org/jsp/dbsearch/PrimarySearch_ki.jsp?energyterm=kJ/mole&tag=pol&polymerid=5809&target=ALK+tyrosine+kinase+receptor&column=ki&startPg=0&Increment=50&submit=Search

> <Link to Ligand-Target Pair in BindingDB>
http://www.bindingdb.org/jsp/dbsearch/PrimarySearch_ki.jsp?energyterm=kJ/mole&tag=r21&monomerid=50157336&enzyme=ALK+tyrosine+kinase+receptor&column=ki&startPg=0&Increment=50&submit=Search

> <Ligand HET ID in PDB>


> <PDB ID(s) for Ligand-Target Complex>


> <PubChem CID>
127031598

> <PubChem SID>
104044335

> <ChEBI ID of Ligand>


> <ChEMBL ID of Ligand>
CHEMBL3785093

> <DrugBank ID of Ligand>


> <IUPHAR_GRAC ID of Ligand>


> <KEGG ID of Ligand>


> <ZINC ID of Ligand>
ZINC28336719

> <Number of Protein Chains in Target (>1 implies a multichain complex)>
1

> <BindingDB Target Chain Sequence>
MGAIGLLWLLPLLLSTAAVGSGMGTGQRAGSPAAGPPLQPREPLSYSRLQRKSLAVDFVVPSLFRVYARDLLLPPSSSELKAGRPEARGSLALDCAPLLRLLGPAPGVSWTAGSPAPAEARTLSRVLKGGSVRKLRRAKQLVLELGEEAILEGCVGPPGEAAVGLLQFNLSELFSWWIRQGEGRLRIRLMPEKKASEVGREGRLSAAIRASQPRLLFQIFGTGHSSLESPTNMPSPSPDYFTWNLTWIMKDSFPFLSHRSRYGLECSFDFPCELEYSPPLHDLRNQSWSWRRIPSEEASQMDLLDGPGAERSKEMPRGSFLLLNTSADSKHTILSPWMRSSSEHCTLAVSVHRHLQPSGRYIAQLLPHNEAAREILLMPTPGKHGWTVLQGRIGRPDNPFRVALEYISSGNRSLSAVDFFALKNCSEGTSPGSKMALQSSFTCWNGTVLQLGQACDFHQDCAQGEDESQMCRKLPVGFYCNFEDGFCGWTQGTLSPHTPQWQVRTLKDARFQDHQDHALLLSTTDVPASESATVTSATFPAPIKSSPCELRMSWLIRGVLRGNVSLVLVENKTGKEQGRMVWHVAAYEGLSLWQWMVLPLLDVSDRFWLQMVAWWGQGSRAIVAFDNISISLDCYLTISGEDKILQNTAPKSRNLFERNPNKELKPGENSPRQTPIFDPTVHWLFTTCGASGPHGPTQAQCNNAYQNSNLSVEVGSEGPLKGIQIWKVPATDTYSISGYGAAGGKGGKNTMMRSHGVSVLGIFNLEKDDMLYILVGQQGEDACPSTNQLIQKVCIGENNVIEEEIRVNRSVHEWAGGGGGGGGATYVFKMKDGVPVPLIIAAGGGGRAYGAKTDTFHPERLENNSSVLGLNGNSGAAGGGGGWNDNTSLLWAGKSLQEGATGGHSCPQAMKKWGWETRGGFGGGGGGCSSGGGGGGYIGGNAASNNDPEMDGEDGVSFISPLGILYTPALKVMEGHGEVNIKHYLNCSHCEVDECHMDPESHKVICFCDHGTVLAEDGVSCIVSPTPEPHLPLSLILSVVTSALVAALVLAFSGIMIVYRRKHQELQAMQMELQSPEYKLSKLRTSTIMTDYNPNYCFAGKTSSISDLKEVPRKNITLIRGLGHGAFGEVYEGQVSGMPNDPSPLQVAVKTLPEVCSEQDELDFLMEALIISKFNHQNIVRCIGVSLQSLPRFILLELMAGGDLKSFLRETRPRPSQPSSLAMLDLLHVARDIACGCQYLEENHFIHRDIAARNCLLTCPGPGRVAKIGDFGMARDIYRASYYRKGGCAMLPVKWMPPEAFMEGIFTSKTDTWSFGVLLWEIFSLGYMPYPSKSNQEVLEFVTSGGRMDPPKNCPGPVYRIMTQCWQHQPEDRPNFAIILERIEYCTQDPDVINTALPIEYGPLVEEEEKVPVRPKDPEGVPPLLVSQQAKREEERSPAAPPPLPTTSSGKAAKKPTAAEISVRVPRGPAVEGGHVNMAFSQSNPPSELHKVHGSRNKPTSLWNPTYGSWFTEKPTKKNNPIAKKEPHDRGNLGLEGSCTVPPNVATGRLPGASLLLEPSSLTANMKEVPLFRLRHFPCGNVNYGYQQQGLPLEAATAPGAGHYEDTILKSKNSMNQPGP

> <PDB ID(s) of Target Chain>
2XB7,2XBA,3AOX,5FTO,5FTQ,6E0R,6EBW,6EDL,6MX8

> <UniProt (SwissProt) Recommended Name of Target Chain>
ALK tyrosine kinase receptor

> <UniProt (SwissProt) Entry Name of Target Chain>
ALK_HUMAN

> <UniProt (SwissProt) Primary ID of Target Chain>
Q9UM73

> <UniProt (SwissProt) Secondary ID(s) of Target Chain>
Q4ZFX9,Q53QQ6,Q53RZ4,Q59FI3,Q9Y4K6

> <UniProt (SwissProt) Alternative ID(s) of Target Chain>


> <UniProt (TrEMBL) Submitted Name of Target Chain>


> <UniProt (TrEMBL) Entry Name of Target Chain>


> <UniProt (TrEMBL) Primary ID of Target Chain>


> <UniProt (TrEMBL) Secondary ID(s) of Target Chain>


> <UniProt (TrEMBL) Alternative ID(s) of Target Chain>


$$$$
BindingDB_50157344

Vconf v2.0 Academic SN VC001-00000245
 57 60  0  0  0  0  0  0  0  0999 V2000
   -1.9920   -0.4470    0.4710 N   0  0  0  0  0  0  0  0  0  0  0
   -2.2580   -0.7480   -0.8380 C   0  0  0  0  0  0  0  0  0  0  0
    2.1090    8.3170    4.7370 N   0  0  0  0  0  0  0  0  0  0  0
   -1.1700    1.3930    1.8310 C   0  0  0  0  0  0  0  0  0  0  0
   -0.8400    0.3140    0.8720 C   0  0  0  0  0  0  0  0  0  0  0
    1.4300    9.1150    5.6070 C   0  0  0  0  0  0  0  0  0  0  0
    1.5290   10.5180    5.5180 C   0  0  0  0  0  0  0  0  0  0  0
   -1.4530   -0.4090   -1.8080 N   0  0  0  0  0  0  0  0  0  0  0
   -2.4240    1.4230    2.4830 C   0  0  0  0  0  0  0  0  0  0  0
   -2.8460   -0.8680    1.5380 C   0  0  0  0  0  0  0  0  0  0  0
   -0.2200    2.3980    2.1050 C   0  0  0  0  0  0  0  0  0  0  0
    1.9310    8.4360    3.3250 C   0  0  0  0  0  0  0  0  0  0  0
    2.9840    7.2820    5.1910 C   0  0  0  0  0  0  0  0  0  0  0
   -3.4300    0.3700    2.2440 C   0  0  0  0  0  0  0  0  0  0  0
   -3.3590   -1.4170   -1.2100 N   0  0  0  0  0  0  0  0  0  0  0
   -2.7300    2.4790    3.3610 C   0  0  0  0  0  0  0  0  0  0  0
   -0.5240    3.4500    2.9940 C   0  0  0  0  0  0  0  0  0  0  0
    0.8100   11.3400    6.4050 C   0  0  0  0  0  0  0  0  0  0  0
    0.3300    4.4680    3.2970 O   0  0  0  0  0  0  0  0  0  0  0
    0.9030   12.6770    6.3130 N   0  0  0  0  0  0  0  0  0  0  0
   -1.7840    3.4840    3.6130 C   0  0  0  0  0  0  0  0  0  0  0
    1.3660    7.1170    2.7770 C   0  0  0  0  0  0  0  0  0  0  0
    2.4540    5.9200    4.7130 C   0  0  0  0  0  0  0  0  0  0  0
    1.6250    4.6110    2.7060 C   0  0  0  0  0  0  0  0  0  0  0
    2.2580    5.9280    3.1850 C   0  0  0  0  0  0  0  0  0  0  0
    0.5980    8.5440    6.5910 C   0  0  0  0  0  0  0  0  0  0  0
   -0.1210    9.3630    7.4780 C   0  0  0  0  0  0  0  0  0  0  0
   -0.0130   10.7600    7.3860 C   0  0  0  0  0  0  0  0  0  0  0
   -0.3390    0.7640    0.0120 H   0  0  0  0  0  0  0  0  0  0  0
   -0.1330   -0.3620    1.3560 H   0  0  0  0  0  0  0  0  0  0  0
    2.1240   10.9390    4.8030 H   0  0  0  0  0  0  0  0  0  0  0
   -0.6610    0.0510   -1.6280 H   0  0  0  0  0  0  0  0  0  0  0
   -3.6710   -1.5000    1.2080 H   0  0  0  0  0  0  0  0  0  0  0
   -2.2540   -1.4400    2.2550 H   0  0  0  0  0  0  0  0  0  0  0
    0.6890    2.3660    1.6450 H   0  0  0  0  0  0  0  0  0  0  0
    2.8950    8.6390    2.8550 H   0  0  0  0  0  0  0  0  0  0  0
    1.2410    9.2410    3.0640 H   0  0  0  0  0  0  0  0  0  0  0
    3.9780    7.4460    4.7710 H   0  0  0  0  0  0  0  0  0  0  0
    3.0700    7.2670    6.2800 H   0  0  0  0  0  0  0  0  0  0  0
   -3.8540    0.0430    3.1950 H   0  0  0  0  0  0  0  0  0  0  0
   -4.2290    0.7870    1.6300 H   0  0  0  0  0  0  0  0  0  0  0
   -3.5020   -1.6150   -2.1490 H   0  0  0  0  0  0  0  0  0  0  0
   -4.0100   -1.6990   -0.5520 H   0  0  0  0  0  0  0  0  0  0  0
   -3.6390    2.5150    3.8220 H   0  0  0  0  0  0  0  0  0  0  0
    0.3980   13.2410    6.9190 H   0  0  0  0  0  0  0  0  0  0  0
    1.4700   13.0800    5.6390 H   0  0  0  0  0  0  0  0  0  0  0
   -2.0150    4.2460    4.2510 H   0  0  0  0  0  0  0  0  0  0  0
    0.3610    6.9730    3.1760 H   0  0  0  0  0  0  0  0  0  0  0
    1.3110    7.1720    1.6890 H   0  0  0  0  0  0  0  0  0  0  0
    1.5000    5.7170    5.2030 H   0  0  0  0  0  0  0  0  0  0  0
    3.1650    5.1400    4.9860 H   0  0  0  0  0  0  0  0  0  0  0
    2.2630    3.7740    2.9960 H   0  0  0  0  0  0  0  0  0  0  0
    1.5400    4.6400    1.6180 H   0  0  0  0  0  0  0  0  0  0  0
    3.2340    6.0400    2.7090 H   0  0  0  0  0  0  0  0  0  0  0
    0.5110    7.5290    6.6600 H   0  0  0  0  0  0  0  0  0  0  0
   -0.7230    8.9420    8.1860 H   0  0  0  0  0  0  0  0  0  0  0
   -0.5380   11.3510    8.0320 H   0  0  0  0  0  0  0  0  0  0  0
  1  2  1  0  0  0  0
  1  5  1  0  0  0  0
  1 10  1  0  0  0  0
  2  8  2  0  0  0  0
  2 15  1  0  0  0  0
  3  6  1  0  0  0  0
  3 12  1  0  0  0  0
  3 13  1  0  0  0  0
  4  5  1  0  0  0  0
  4  9  2  0  0  0  0
  4 11  1  0  0  0  0
  5 29  1  0  0  0  0
  5 30  1  0  0  0  0
  6  7  2  0  0  0  0
  6 26  1  0  0  0  0
  7 18  1  0  0  0  0
  7 31  1  0  0  0  0
  8 32  1  0  0  0  0
  9 14  1  0  0  0  0
  9 16  1  0  0  0  0
 10 14  1  0  0  0  0
 10 33  1  0  0  0  0
 10 34  1  0  0  0  0
 11 17  2  0  0  0  0
 11 35  1  0  0  0  0
 12 22  1  0  0  0  0
 12 36  1  0  0  0  0
 12 37  1  0  0  0  0
 13 23  1  0  0  0  0
 13 38  1  0  0  0  0
 13 39  1  0  0  0  0
 14 40  1  0  0  0  0
 14 41  1  0  0  0  0
 15 42  1  0  0  0  0
 15 43  1  0  0  0  0
 16 21  2  0  0  0  0
 16 44  1  0  0  0  0
 17 19  1  0  0  0  0
 17 21  1  0  0  0  0
 18 20  1  0  0  0  0
 18 28  2  0  0  0  0
 19 24  1  0  0  0  0
 20 45  1  0  0  0  0
 20 46  1  0  0  0  0
 21 47  1  0  0  0  0
 22 25  1  0  0  0  0
 22 48  1  0  0  0  0
 22 49  1  0  0  0  0
 23 25  1  0  0  0  0
 23 50  1  0  0  0  0
 23 51  1  0  0  0  0
 24 25  1  0  0  0  0
 24 52  1  0  0  0  0
 24 53  1  0  0  0  0
 25 54  1  0  0  0  0
 26 27  2  0  0  0  0
 26 55  1  0  0  0  0
 27 28  1  0  0  0  0
 27 56  1  0  0  0  0
 28 57  1  0  0  0  0
M  END
> <From>
www.bindingDB.org

> <BindingDB Reactant_set_id>
50484646

> <Ligand InChI>
InChI=1S/C22H29N5O/c23-19-2-1-3-20(13-19)26-9-6-16(7-10-26)15-28-21-5-4-17-8-11-27(22(24)25)14-18(17)12-21/h1-5,12-13,16H,6-11,14-15,23H2,(H3,24,25)

> <Ligand InChI Key>
IHLZVDWKJJSGGE-UHFFFAOYSA-N

> <BindingDB MonomerID>
50157344

> <BindingDB Ligand Name>
CHEMBL3786792

> <Target Name Assigned by Curator or DataSource>
ALK tyrosine kinase receptor

> <Target Source Organism According to Curator or DataSource>
Homo sapiens

> <Ki (nM)>


> <IC50 (nM)>
 200

> <Kd (nM)>


> <EC50 (nM)>


> <kon (M-1-s-1)>


> <koff (s-1)>


> <pH>


> <Temp C>


> <Curation/DataSource>
ChEMBL

> <Article DOI>
10.1016/j.bmcl.2016.02.052

> <PMID>
26923695

> <PubChem AID>


> <Patent Number>


> <Authors>
Song, D; Lee, M; Park, CH; Ahn, S; Yun, CS; Lee, CO; Kim, HR; Hwang, JY

> <Institution>
Chungbuk National University

> <Link to Ligand in BindingDB>
http://www.bindingdb.org/bind/chemsearch/marvin/MolStructure.jsp?monomerid=50157344

> <Link to Ligand-Target Pair in BindingDB>
http://www.bindingdb.org/jsp/dbsearch/PrimarySearch_ki.jsp?energyterm=kJ/mole&tag=pol&polymerid=5809&target=ALK+tyrosine+kinase+receptor&column=ki&startPg=0&Increment=50&submit=Search

> <Link to Ligand-Target Pair in BindingDB>
http://www.bindingdb.org/jsp/dbsearch/PrimarySearch_ki.jsp?energyterm=kJ/mole&tag=r21&monomerid=50157344&enzyme=ALK+tyrosine+kinase+receptor&column=ki&startPg=0&Increment=50&submit=Search

> <Ligand HET ID in PDB>


> <PDB ID(s) for Ligand-Target Complex>


> <PubChem CID>
127031882

> <PubChem SID>
104044343

> <ChEBI ID of Ligand>


> <ChEMBL ID of Ligand>
CHEMBL3786792

> <DrugBank ID of Ligand>


> <IUPHAR_GRAC ID of Ligand>


> <KEGG ID of Ligand>


> <ZINC ID of Ligand>
ZINC28348334

> <Number of Protein Chains in Target (>1 implies a multichain complex)>
1

> <BindingDB Target Chain Sequence>
MGAIGLLWLLPLLLSTAAVGSGMGTGQRAGSPAAGPPLQPREPLSYSRLQRKSLAVDFVVPSLFRVYARDLLLPPSSSELKAGRPEARGSLALDCAPLLRLLGPAPGVSWTAGSPAPAEARTLSRVLKGGSVRKLRRAKQLVLELGEEAILEGCVGPPGEAAVGLLQFNLSELFSWWIRQGEGRLRIRLMPEKKASEVGREGRLSAAIRASQPRLLFQIFGTGHSSLESPTNMPSPSPDYFTWNLTWIMKDSFPFLSHRSRYGLECSFDFPCELEYSPPLHDLRNQSWSWRRIPSEEASQMDLLDGPGAERSKEMPRGSFLLLNTSADSKHTILSPWMRSSSEHCTLAVSVHRHLQPSGRYIAQLLPHNEAAREILLMPTPGKHGWTVLQGRIGRPDNPFRVALEYISSGNRSLSAVDFFALKNCSEGTSPGSKMALQSSFTCWNGTVLQLGQACDFHQDCAQGEDESQMCRKLPVGFYCNFEDGFCGWTQGTLSPHTPQWQVRTLKDARFQDHQDHALLLSTTDVPASESATVTSATFPAPIKSSPCELRMSWLIRGVLRGNVSLVLVENKTGKEQGRMVWHVAAYEGLSLWQWMVLPLLDVSDRFWLQMVAWWGQGSRAIVAFDNISISLDCYLTISGEDKILQNTAPKSRNLFERNPNKELKPGENSPRQTPIFDPTVHWLFTTCGASGPHGPTQAQCNNAYQNSNLSVEVGSEGPLKGIQIWKVPATDTYSISGYGAAGGKGGKNTMMRSHGVSVLGIFNLEKDDMLYILVGQQGEDACPSTNQLIQKVCIGENNVIEEEIRVNRSVHEWAGGGGGGGGATYVFKMKDGVPVPLIIAAGGGGRAYGAKTDTFHPERLENNSSVLGLNGNSGAAGGGGGWNDNTSLLWAGKSLQEGATGGHSCPQAMKKWGWETRGGFGGGGGGCSSGGGGGGYIGGNAASNNDPEMDGEDGVSFISPLGILYTPALKVMEGHGEVNIKHYLNCSHCEVDECHMDPESHKVICFCDHGTVLAEDGVSCIVSPTPEPHLPLSLILSVVTSALVAALVLAFSGIMIVYRRKHQELQAMQMELQSPEYKLSKLRTSTIMTDYNPNYCFAGKTSSISDLKEVPRKNITLIRGLGHGAFGEVYEGQVSGMPNDPSPLQVAVKTLPEVCSEQDELDFLMEALIISKFNHQNIVRCIGVSLQSLPRFILLELMAGGDLKSFLRETRPRPSQPSSLAMLDLLHVARDIACGCQYLEENHFIHRDIAARNCLLTCPGPGRVAKIGDFGMARDIYRASYYRKGGCAMLPVKWMPPEAFMEGIFTSKTDTWSFGVLLWEIFSLGYMPYPSKSNQEVLEFVTSGGRMDPPKNCPGPVYRIMTQCWQHQPEDRPNFAIILERIEYCTQDPDVINTALPIEYGPLVEEEEKVPVRPKDPEGVPPLLVSQQAKREEERSPAAPPPLPTTSSGKAAKKPTAAEISVRVPRGPAVEGGHVNMAFSQSNPPSELHKVHGSRNKPTSLWNPTYGSWFTEKPTKKNNPIAKKEPHDRGNLGLEGSCTVPPNVATGRLPGASLLLEPSSLTANMKEVPLFRLRHFPCGNVNYGYQQQGLPLEAATAPGAGHYEDTILKSKNSMNQPGP

> <PDB ID(s) of Target Chain>
2XB7,2XBA,3AOX,5FTO,5FTQ,6E0R,6EBW,6EDL,6MX8

> <UniProt (SwissProt) Recommended Name of Target Chain>
ALK tyrosine kinase receptor

> <UniProt (SwissProt) Entry Name of Target Chain>
ALK_HUMAN

> <UniProt (SwissProt) Primary ID of Target Chain>
Q9UM73

> <UniProt (SwissProt) Secondary ID(s) of Target Chain>
Q4ZFX9,Q53QQ6,Q53RZ4,Q59FI3,Q9Y4K6

> <UniProt (SwissProt) Alternative ID(s) of Target Chain>


> <UniProt (TrEMBL) Submitted Name of Target Chain>


> <UniProt (TrEMBL) Entry Name of Target Chain>


> <UniProt (TrEMBL) Primary ID of Target Chain>


> <UniProt (TrEMBL) Secondary ID(s) of Target Chain>


> <UniProt (TrEMBL) Alternative ID(s) of Target Chain>


$$$$
BindingDB_50157346

Vconf v2.0 Academic SN VC001-00000245
 60 63  0  0  0  0  0  0  0  0999 V2000
    2.7960   -0.6840    0.9110 C   0  0  0  0  0  0  0  0  0  0  0
    2.8750    0.6450    1.0960 N   0  0  0  0  0  0  0  0  0  0  0
    2.1080    4.8850    1.2790 C   0  0  0  0  0  0  0  0  0  0  0
    3.1000    5.8360    1.8530 C   0  0  0  0  0  0  0  0  0  0  0
    1.7300    1.1970    0.6610 C   0  0  0  0  0  0  0  0  0  0  0
    3.7710   -1.5760    1.2290 N   0  0  1  0  0  0  0  0  0  0  0
    1.6040   -1.0100    0.3590 O   0  0  0  0  0  0  0  0  0  0  0
    0.8840    5.3650    0.7550 C   0  0  0  0  0  0  0  0  0  0  0
    6.0170   -3.0670    0.6640 N   0  0  0  0  0  0  0  0  0  0  0
    2.3590    3.4940    1.2320 C   0  0  0  0  0  0  0  0  0  0  0
    0.5400    7.0710    0.7980 S   0  0  0  0  0  0  0  0  0  0  0
    0.9360    0.1500    0.1990 C   0  0  0  0  0  0  0  0  0  0  0
    1.4290    2.5810    0.6870 C   0  0  0  0  0  0  0  0  0  0  0
   -0.5620    7.4810   -0.4800 C   0  0  0  0  0  0  0  0  0  0  0
    6.9840   -3.9800    0.9780 C   0  0  0  0  0  0  0  0  0  0  0
   -0.1830    7.4360   -1.8430 C   0  0  0  0  0  0  0  0  0  0  0
    3.6170   -2.9760    0.9900 C   0  0  0  0  0  0  0  0  0  0  0
    5.0190   -1.1690    1.7930 C   0  0  0  0  0  0  0  0  0  0  0
    4.7660   -3.4640    0.0920 C   0  0  0  0  0  0  0  0  0  0  0
    6.1640   -1.6610    0.8930 C   0  0  0  0  0  0  0  0  0  0  0
   -0.0550    4.4670    0.2160 C   0  0  0  0  0  0  0  0  0  0  0
    6.7960   -5.1980    0.7610 O   0  0  0  0  0  0  0  0  0  0  0
    0.2150    3.0910    0.1800 C   0  0  0  0  0  0  0  0  0  0  0
    4.2480    5.2420    2.3240 F   0  0  0  0  0  0  0  0  0  0  0
    3.4970    6.7440    0.9000 F   0  0  0  0  0  0  0  0  0  0  0
    2.5520    6.5170    2.9140 F   0  0  0  0  0  0  0  0  0  0  0
    1.1960    7.0690   -2.2550 C   0  0  0  0  0  0  0  0  0  0  0
    8.2690   -3.5980    1.5730 C   0  0  0  0  0  0  0  0  0  0  0
   -1.8640    7.8680   -0.1170 C   0  0  0  0  0  0  0  0  0  0  0
   -1.1440    7.7660   -2.8240 C   0  0  0  0  0  0  0  0  0  0  0
    1.2150    5.7890   -3.1130 C   0  0  0  0  0  0  0  0  0  0  0
    1.8880    8.2150   -3.0180 C   0  0  0  0  0  0  0  0  0  0  0
   -2.8070    8.1960   -1.1030 C   0  0  0  0  0  0  0  0  0  0  0
   -2.4470    8.1420   -2.4590 C   0  0  0  0  0  0  0  0  0  0  0
    3.2420    3.1390    1.6040 H   0  0  0  0  0  0  0  0  0  0  0
    0.0000    0.2340   -0.1960 H   0  0  0  0  0  0  0  0  0  0  0
    2.6670   -3.2150    0.5070 H   0  0  0  0  0  0  0  0  0  0  0
    3.6630   -3.5060    1.9420 H   0  0  0  0  0  0  0  0  0  0  0
    5.0960   -0.0850    1.8990 H   0  0  0  0  0  0  0  0  0  0  0
    5.1260   -1.6200    2.7810 H   0  0  0  0  0  0  0  0  0  0  0
    4.6800   -4.5460   -0.0240 H   0  0  0  0  0  0  0  0  0  0  0
    4.6650   -3.0040   -0.8920 H   0  0  0  0  0  0  0  0  0  0  0
    6.1070   -1.1400   -0.0640 H   0  0  0  0  0  0  0  0  0  0  0
    7.1110   -1.4010    1.3660 H   0  0  0  0  0  0  0  0  0  0  0
   -0.9420    4.8110   -0.1510 H   0  0  0  0  0  0  0  0  0  0  0
   -0.4860    2.4680   -0.2210 H   0  0  0  0  0  0  0  0  0  0  0
    1.8100    6.8700   -1.3780 H   0  0  0  0  0  0  0  0  0  0  0
    8.8850   -4.4830    1.7320 H   0  0  0  0  0  0  0  0  0  0  0
    8.7930   -2.9160    0.9040 H   0  0  0  0  0  0  0  0  0  0  0
    8.0960   -3.1100    2.5330 H   0  0  0  0  0  0  0  0  0  0  0
   -2.1280    7.9030    0.8680 H   0  0  0  0  0  0  0  0  0  0  0
   -0.8940    7.7370   -3.8120 H   0  0  0  0  0  0  0  0  0  0  0
    2.2480    5.5140   -3.3280 H   0  0  0  0  0  0  0  0  0  0  0
    0.7380    4.9700   -2.5730 H   0  0  0  0  0  0  0  0  0  0  0
    0.6900    5.9520   -4.0560 H   0  0  0  0  0  0  0  0  0  0  0
    2.9210    7.9370   -3.2290 H   0  0  0  0  0  0  0  0  0  0  0
    1.3770    8.4130   -3.9610 H   0  0  0  0  0  0  0  0  0  0  0
    1.8860    9.1210   -2.4100 H   0  0  0  0  0  0  0  0  0  0  0
   -3.7520    8.4720   -0.8360 H   0  0  0  0  0  0  0  0  0  0  0
   -3.1310    8.3790   -3.1780 H   0  0  0  0  0  0  0  0  0  0  0
  1  2  2  0  0  0  0
  6  1  1  6  0  0  0
  1  7  1  0  0  0  0
  2  5  1  0  0  0  0
  3  4  1  0  0  0  0
  3  8  1  0  0  0  0
  3 10  2  0  0  0  0
  4 24  1  0  0  0  0
  4 25  1  0  0  0  0
  4 26  1  0  0  0  0
  5 12  2  0  0  0  0
  5 13  1  0  0  0  0
  6 17  1  0  0  0  0
  6 18  1  0  0  0  0
  7 12  1  0  0  0  0
  8 11  1  0  0  0  0
  8 21  2  0  0  0  0
  9 15  1  0  0  0  0
  9 19  1  0  0  0  0
  9 20  1  0  0  0  0
 10 13  1  0  0  0  0
 10 35  1  0  0  0  0
 11 14  1  0  0  0  0
 12 36  1  0  0  0  0
 13 23  2  0  0  0  0
 14 16  2  0  0  0  0
 14 29  1  0  0  0  0
 15 22  2  0  0  0  0
 15 28  1  0  0  0  0
 16 27  1  0  0  0  0
 16 30  1  0  0  0  0
 17 19  1  0  0  0  0
 17 37  1  0  0  0  0
 17 38  1  0  0  0  0
 18 20  1  0  0  0  0
 18 39  1  0  0  0  0
 18 40  1  0  0  0  0
 19 41  1  0  0  0  0
 19 42  1  0  0  0  0
 20 43  1  0  0  0  0
 20 44  1  0  0  0  0
 21 23  1  0  0  0  0
 21 45  1  0  0  0  0
 23 46  1  0  0  0  0
 27 31  1  0  0  0  0
 27 32  1  0  0  0  0
 27 47  1  0  0  0  0
 28 48  1  0  0  0  0
 28 49  1  0  0  0  0
 28 50  1  0  0  0  0
 29 33  2  0  0  0  0
 29 51  1  0  0  0  0
 30 34  2  0  0  0  0
 30 52  1  0  0  0  0
 31 53  1  0  0  0  0
 31 54  1  0  0  0  0
 31 55  1  0  0  0  0
 32 56  1  0  0  0  0
 32 57  1  0  0  0  0
 32 58  1  0  0  0  0
 33 34  1  0  0  0  0
 33 59  1  0  0  0  0
 34 60  1  0  0  0  0
M  END
> <From>
www.bindingDB.org

> <BindingDB Reactant_set_id>
50484647

> <Ligand InChI>
InChI=1S/C30H37ClN6O4S/c1-19(2)42(38,39)26-9-7-6-8-23(26)33-28-22(31)18-32-29(35-28)34-24-17-21-20(16-25(24)40-5)10-11-27(30(21,3)4)36-37-12-14-41-15-13-37/h6-9,16-19H,10-15H2,1-5H3,(H2,32,33,34,35)/b36-27+

> <Ligand InChI Key>
GZWDPVIODHNNES-KJFHWCLQSA-N

> <BindingDB MonomerID>
50157346

> <BindingDB Ligand Name>
CHEMBL3785384

> <Target Name Assigned by Curator or DataSource>
ALK tyrosine kinase receptor

> <Target Source Organism According to Curator or DataSource>
Homo sapiens

> <Ki (nM)>


> <IC50 (nM)>
 222

> <Kd (nM)>


> <EC50 (nM)>


> <kon (M-1-s-1)>


> <koff (s-1)>


> <pH>


> <Temp C>


> <Curation/DataSource>
ChEMBL

> <Article DOI>
10.1016/j.bmcl.2016.02.052

> <PMID>
26923695

> <PubChem AID>


> <Patent Number>


> <Authors>
Song, D; Lee, M; Park, CH; Ahn, S; Yun, CS; Lee, CO; Kim, HR; Hwang, JY

> <Institution>
Chungbuk National University

> <Link to Ligand in BindingDB>
http://www.bindingdb.org/bind/chemsearch/marvin/MolStructure.jsp?monomerid=50157346

> <Link to Ligand-Target Pair in BindingDB>
http://www.bindingdb.org/jsp/dbsearch/PrimarySearch_ki.jsp?energyterm=kJ/mole&tag=pol&polymerid=5809&target=ALK+tyrosine+kinase+receptor&column=ki&startPg=0&Increment=50&submit=Search

> <Link to Ligand-Target Pair in BindingDB>
http://www.bindingdb.org/jsp/dbsearch/PrimarySearch_ki.jsp?energyterm=kJ/mole&tag=r21&monomerid=50157346&enzyme=ALK+tyrosine+kinase+receptor&column=ki&startPg=0&Increment=50&submit=Search

> <Ligand HET ID in PDB>


> <PDB ID(s) for Ligand-Target Complex>


> <PubChem CID>
127031883

> <PubChem SID>
104044345

> <ChEBI ID of Ligand>


> <ChEMBL ID of Ligand>
CHEMBL3785384

> <DrugBank ID of Ligand>


> <IUPHAR_GRAC ID of Ligand>


> <KEGG ID of Ligand>


> <ZINC ID of Ligand>
ZINC28352263

> <Number of Protein Chains in Target (>1 implies a multichain complex)>
1

> <BindingDB Target Chain Sequence>
MGAIGLLWLLPLLLSTAAVGSGMGTGQRAGSPAAGPPLQPREPLSYSRLQRKSLAVDFVVPSLFRVYARDLLLPPSSSELKAGRPEARGSLALDCAPLLRLLGPAPGVSWTAGSPAPAEARTLSRVLKGGSVRKLRRAKQLVLELGEEAILEGCVGPPGEAAVGLLQFNLSELFSWWIRQGEGRLRIRLMPEKKASEVGREGRLSAAIRASQPRLLFQIFGTGHSSLESPTNMPSPSPDYFTWNLTWIMKDSFPFLSHRSRYGLECSFDFPCELEYSPPLHDLRNQSWSWRRIPSEEASQMDLLDGPGAERSKEMPRGSFLLLNTSADSKHTILSPWMRSSSEHCTLAVSVHRHLQPSGRYIAQLLPHNEAAREILLMPTPGKHGWTVLQGRIGRPDNPFRVALEYISSGNRSLSAVDFFALKNCSEGTSPGSKMALQSSFTCWNGTVLQLGQACDFHQDCAQGEDESQMCRKLPVGFYCNFEDGFCGWTQGTLSPHTPQWQVRTLKDARFQDHQDHALLLSTTDVPASESATVTSATFPAPIKSSPCELRMSWLIRGVLRGNVSLVLVENKTGKEQGRMVWHVAAYEGLSLWQWMVLPLLDVSDRFWLQMVAWWGQGSRAIVAFDNISISLDCYLTISGEDKILQNTAPKSRNLFERNPNKELKPGENSPRQTPIFDPTVHWLFTTCGASGPHGPTQAQCNNAYQNSNLSVEVGSEGPLKGIQIWKVPATDTYSISGYGAAGGKGGKNTMMRSHGVSVLGIFNLEKDDMLYILVGQQGEDACPSTNQLIQKVCIGENNVIEEEIRVNRSVHEWAGGGGGGGGATYVFKMKDGVPVPLIIAAGGGGRAYGAKTDTFHPERLENNSSVLGLNGNSGAAGGGGGWNDNTSLLWAGKSLQEGATGGHSCPQAMKKWGWETRGGFGGGGGGCSSGGGGGGYIGGNAASNNDPEMDGEDGVSFISPLGILYTPALKVMEGHGEVNIKHYLNCSHCEVDECHMDPESHKVICFCDHGTVLAEDGVSCIVSPTPEPHLPLSLILSVVTSALVAALVLAFSGIMIVYRRKHQELQAMQMELQSPEYKLSKLRTSTIMTDYNPNYCFAGKTSSISDLKEVPRKNITLIRGLGHGAFGEVYEGQVSGMPNDPSPLQVAVKTLPEVCSEQDELDFLMEALIISKFNHQNIVRCIGVSLQSLPRFILLELMAGGDLKSFLRETRPRPSQPSSLAMLDLLHVARDIACGCQYLEENHFIHRDIAARNCLLTCPGPGRVAKIGDFGMARDIYRASYYRKGGCAMLPVKWMPPEAFMEGIFTSKTDTWSFGVLLWEIFSLGYMPYPSKSNQEVLEFVTSGGRMDPPKNCPGPVYRIMTQCWQHQPEDRPNFAIILERIEYCTQDPDVINTALPIEYGPLVEEEEKVPVRPKDPEGVPPLLVSQQAKREEERSPAAPPPLPTTSSGKAAKKPTAAEISVRVPRGPAVEGGHVNMAFSQSNPPSELHKVHGSRNKPTSLWNPTYGSWFTEKPTKKNNPIAKKEPHDRGNLGLEGSCTVPPNVATGRLPGASLLLEPSSLTANMKEVPLFRLRHFPCGNVNYGYQQQGLPLEAATAPGAGHYEDTILKSKNSMNQPGP

> <PDB ID(s) of Target Chain>
2XB7,2XBA,3AOX,5FTO,5FTQ,6E0R,6EBW,6EDL,6MX8

> <UniProt (SwissProt) Recommended Name of Target Chain>
ALK tyrosine kinase receptor

> <UniProt (SwissProt) Entry Name of Target Chain>
ALK_HUMAN

> <UniProt (SwissProt) Primary ID of Target Chain>
Q9UM73

> <UniProt (SwissProt) Secondary ID(s) of Target Chain>
Q4ZFX9,Q53QQ6,Q53RZ4,Q59FI3,Q9Y4K6

> <UniProt (SwissProt) Alternative ID(s) of Target Chain>


> <UniProt (TrEMBL) Submitted Name of Target Chain>


> <UniProt (TrEMBL) Entry Name of Target Chain>


> <UniProt (TrEMBL) Primary ID of Target Chain>


> <UniProt (TrEMBL) Secondary ID(s) of Target Chain>


> <UniProt (TrEMBL) Alternative ID(s) of Target Chain>


$$$$
BindingDB_50157351

Vconf v2.0 Academic SN VC001-00000245
 59 63  0  0  0  0  0  0  0  0999 V2000
    0.4170    0.5060    0.5730 C   0  0  0  0  0  0  0  0  0  0  0
    0.1810    1.9770    0.5340 C   0  0  0  0  0  0  0  0  0  0  0
    5.0130   -5.2920   -0.5410 N   0  0  1  0  0  0  0  0  0  0  0
    4.7050   -3.9470   -0.5620 C   0  0  0  0  0  0  0  0  0  0  0
   -0.6020   -0.3600    1.0230 C   0  0  0  0  0  0  0  0  0  0  0
    1.6510   -0.0600    0.1750 C   0  0  0  0  0  0  0  0  0  0  0
    1.9150   -1.4560    0.1970 C   0  0  0  0  0  0  0  0  0  0  0
   -2.1450    0.2820    1.5080 S   0  0  0  0  0  0  0  0  0  0  0
   -4.8010   -1.2480    4.1100 C   0  0  0  0  0  0  0  0  0  0  0
    6.6170   -8.2650    1.9390 C   0  0  0  0  0  0  0  0  0  0  0
    3.4580   -3.4040   -0.1750 C   0  0  0  0  0  0  0  0  0  0  0
   -4.2140   -0.5930    3.0140 C   0  0  0  0  0  0  0  0  0  0  0
    3.1930   -2.0080   -0.2070 C   0  0  0  0  0  0  0  0  0  0  0
    5.6580   -3.0720   -0.9710 N   0  0  0  0  0  0  0  0  0  0  0
   -3.9830   -1.8460    5.0940 C   0  0  0  0  0  0  0  0  0  0  0
   -2.8150   -0.5550    2.8760 C   0  0  0  0  0  0  0  0  0  0  0
    6.0600   -7.6290    0.7730 C   0  0  0  0  0  0  0  0  0  0  0
    4.1070   -6.3400   -0.1610 C   0  0  0  0  0  0  0  0  0  0  0
    6.3180   -5.7660   -0.9070 C   0  0  0  0  0  0  0  0  0  0  0
   -6.1600   -1.2850    4.2310 O   0  0  0  0  0  0  0  0  0  0  0
   -0.3870   -1.7450    1.0420 C   0  0  0  0  0  0  0  0  0  0  0
   -4.5460   -2.4740    6.1670 O   0  0  0  0  0  0  0  0  0  0  0
    6.9110   -9.4490    1.9190 O   0  0  0  0  0  0  0  0  0  0  0
    0.8460   -2.2770    0.6420 C   0  0  0  0  0  0  0  0  0  0  0
    1.2540    2.7130    0.0860 F   0  0  0  0  0  0  0  0  0  0  0
   -0.8670    2.2710   -0.3050 F   0  0  0  0  0  0  0  0  0  0  0
   -0.1120    2.4480    1.7920 F   0  0  0  0  0  0  0  0  0  0  0
    4.6540   -7.0750    1.0720 C   0  0  0  0  0  0  0  0  0  0  0
    6.9660   -6.4820    0.2900 C   0  0  0  0  0  0  0  0  0  0  0
   -2.5850   -1.8040    4.9600 C   0  0  0  0  0  0  0  0  0  0  0
    6.8190   -7.5790    3.0480 O   0  0  0  0  0  0  0  0  0  0  0
   -2.0030   -1.1560    3.8570 C   0  0  0  0  0  0  0  0  0  0  0
    5.4860   -1.7350   -1.0330 C   0  0  0  0  0  0  0  0  0  0  0
    4.2560   -1.1830   -0.6550 C   0  0  0  0  0  0  0  0  0  0  0
   -6.7410   -2.2140    5.1560 C   0  0  0  0  0  0  0  0  0  0  0
   -5.9270   -2.2200    6.4620 C   0  0  0  0  0  0  0  0  0  0  0
    2.3720    0.5840   -0.1380 H   0  0  0  0  0  0  0  0  0  0  0
    2.7390   -4.0400    0.1420 H   0  0  0  0  0  0  0  0  0  0  0
   -4.8060   -0.1500    2.3120 H   0  0  0  0  0  0  0  0  0  0  0
    5.9770   -8.3650   -0.0280 H   0  0  0  0  0  0  0  0  0  0  0
    4.0260   -7.0490   -0.9860 H   0  0  0  0  0  0  0  0  0  0  0
    3.1030   -5.9980    0.0720 H   0  0  0  0  0  0  0  0  0  0  0
    6.2220   -6.4720   -1.7340 H   0  0  0  0  0  0  0  0  0  0  0
    6.9930   -4.9720   -1.2270 H   0  0  0  0  0  0  0  0  0  0  0
   -1.1310   -2.3730    1.3450 H   0  0  0  0  0  0  0  0  0  0  0
    0.9380   -3.2900    0.6830 H   0  0  0  0  0  0  0  0  0  0  0
    4.6990   -6.3790    1.9120 H   0  0  0  0  0  0  0  0  0  0  0
    3.9840   -7.8980    1.3260 H   0  0  0  0  0  0  0  0  0  0  0
    7.9340   -6.8830   -0.0130 H   0  0  0  0  0  0  0  0  0  0  0
    7.1150   -5.7610    1.0950 H   0  0  0  0  0  0  0  0  0  0  0
   -1.9920   -2.2380    5.6680 H   0  0  0  0  0  0  0  0  0  0  0
    7.2030   -8.1140    3.7730 H   0  0  0  0  0  0  0  0  0  0  0
   -0.9870   -1.1160    3.7760 H   0  0  0  0  0  0  0  0  0  0  0
    6.2460   -1.1340   -1.3520 H   0  0  0  0  0  0  0  0  0  0  0
    4.1650   -0.1720   -0.7150 H   0  0  0  0  0  0  0  0  0  0  0
   -7.7730   -1.9290    5.3620 H   0  0  0  0  0  0  0  0  0  0  0
   -6.7260   -3.2150    4.7220 H   0  0  0  0  0  0  0  0  0  0  0
   -6.0210   -1.2470    6.9450 H   0  0  0  0  0  0  0  0  0  0  0
   -6.3060   -2.9910    7.1330 H   0  0  0  0  0  0  0  0  0  0  0
  1  2  1  0  0  0  0
  1  5  1  0  0  0  0
  1  6  2  0  0  0  0
  2 25  1  0  0  0  0
  2 26  1  0  0  0  0
  2 27  1  0  0  0  0
  3  4  1  6  0  0  0
  3 18  1  0  0  0  0
  3 19  1  0  0  0  0
  4 11  1  0  0  0  0
  4 14  2  0  0  0  0
  5  8  1  0  0  0  0
  5 21  2  0  0  0  0
  6  7  1  0  0  0  0
  6 37  1  0  0  0  0
  7 13  1  0  0  0  0
  7 24  2  0  0  0  0
  8 16  1  0  0  0  0
  9 12  1  0  0  0  0
  9 15  2  0  0  0  0
  9 20  1  0  0  0  0
 10 17  1  0  0  0  0
 10 23  2  0  0  0  0
 10 31  1  0  0  0  0
 11 13  2  0  0  0  0
 11 38  1  0  0  0  0
 12 16  2  0  0  0  0
 12 39  1  0  0  0  0
 13 34  1  0  0  0  0
 14 33  1  0  0  0  0
 15 22  1  0  0  0  0
 15 30  1  0  0  0  0
 16 32  1  0  0  0  0
 17 28  1  0  0  0  0
 17 29  1  0  0  0  0
 17 40  1  0  0  0  0
 18 28  1  0  0  0  0
 18 41  1  0  0  0  0
 18 42  1  0  0  0  0
 19 29  1  0  0  0  0
 19 43  1  0  0  0  0
 19 44  1  0  0  0  0
 20 35  1  0  0  0  0
 21 24  1  0  0  0  0
 21 45  1  0  0  0  0
 22 36  1  0  0  0  0
 24 46  1  0  0  0  0
 28 47  1  0  0  0  0
 28 48  1  0  0  0  0
 29 49  1  0  0  0  0
 29 50  1  0  0  0  0
 30 32  2  0  0  0  0
 30 51  1  0  0  0  0
 31 52  1  0  0  0  0
 32 53  1  0  0  0  0
 33 34  2  0  0  0  0
 33 54  1  0  0  0  0
 34 55  1  0  0  0  0
 35 36  1  0  0  0  0
 35 56  1  0  0  0  0
 35 57  1  0  0  0  0
 36 58  1  0  0  0  0
 36 59  1  0  0  0  0
M  END
> <From>
www.bindingDB.org

> <BindingDB Reactant_set_id>
50484494

> <Ligand InChI>
InChI=1S/C26H30ClN5O4S/c1-15(2)37(34,35)22-9-7-6-8-19(22)29-24-18(27)14-28-25(31-24)30-20-12-16-10-11-23(32-33)26(3,4)17(16)13-21(20)36-5/h6-9,12-15,33H,10-11H2,1-5H3,(H2,28,29,30,31)/b32-23+

> <Ligand InChI Key>
JEIPYDRWXCKHLM-AWSUPERCSA-N

> <BindingDB MonomerID>
50157351

> <BindingDB Ligand Name>
CHEMBL3785480

> <Target Name Assigned by Curator or DataSource>
ALK tyrosine kinase receptor

> <Target Source Organism According to Curator or DataSource>
Homo sapiens

> <Ki (nM)>


> <IC50 (nM)>
 212

> <Kd (nM)>


> <EC50 (nM)>


> <kon (M-1-s-1)>


> <koff (s-1)>


> <pH>


> <Temp C>


> <Curation/DataSource>
ChEMBL

> <Article DOI>
10.1016/j.bmcl.2016.02.052

> <PMID>
26923695

> <PubChem AID>


> <Patent Number>


> <Authors>
Song, D; Lee, M; Park, CH; Ahn, S; Yun, CS; Lee, CO; Kim, HR; Hwang, JY

> <Institution>
Chungbuk National University

> <Link to Ligand in BindingDB>
http://www.bindingdb.org/bind/chemsearch/marvin/MolStructure.jsp?monomerid=50157351

> <Link to Ligand-Target Pair in BindingDB>
http://www.bindingdb.org/jsp/dbsearch/PrimarySearch_ki.jsp?energyterm=kJ/mole&tag=pol&polymerid=5809&target=ALK+tyrosine+kinase+receptor&column=ki&startPg=0&Increment=50&submit=Search

> <Link to Ligand-Target Pair in BindingDB>
http://www.bindingdb.org/jsp/dbsearch/PrimarySearch_ki.jsp?energyterm=kJ/mole&tag=r21&monomerid=50157351&enzyme=ALK+tyrosine+kinase+receptor&column=ki&startPg=0&Increment=50&submit=Search

> <Ligand HET ID in PDB>


> <PDB ID(s) for Ligand-Target Complex>


> <PubChem CID>
127031884

> <PubChem SID>
104044350

> <ChEBI ID of Ligand>


> <ChEMBL ID of Ligand>
CHEMBL3785480

> <DrugBank ID of Ligand>


> <IUPHAR_GRAC ID of Ligand>


> <KEGG ID of Ligand>


> <ZINC ID of Ligand>
ZINC01551502

> <Number of Protein Chains in Target (>1 implies a multichain complex)>
1

> <BindingDB Target Chain Sequence>
MGAIGLLWLLPLLLSTAAVGSGMGTGQRAGSPAAGPPLQPREPLSYSRLQRKSLAVDFVVPSLFRVYARDLLLPPSSSELKAGRPEARGSLALDCAPLLRLLGPAPGVSWTAGSPAPAEARTLSRVLKGGSVRKLRRAKQLVLELGEEAILEGCVGPPGEAAVGLLQFNLSELFSWWIRQGEGRLRIRLMPEKKASEVGREGRLSAAIRASQPRLLFQIFGTGHSSLESPTNMPSPSPDYFTWNLTWIMKDSFPFLSHRSRYGLECSFDFPCELEYSPPLHDLRNQSWSWRRIPSEEASQMDLLDGPGAERSKEMPRGSFLLLNTSADSKHTILSPWMRSSSEHCTLAVSVHRHLQPSGRYIAQLLPHNEAAREILLMPTPGKHGWTVLQGRIGRPDNPFRVALEYISSGNRSLSAVDFFALKNCSEGTSPGSKMALQSSFTCWNGTVLQLGQACDFHQDCAQGEDESQMCRKLPVGFYCNFEDGFCGWTQGTLSPHTPQWQVRTLKDARFQDHQDHALLLSTTDVPASESATVTSATFPAPIKSSPCELRMSWLIRGVLRGNVSLVLVENKTGKEQGRMVWHVAAYEGLSLWQWMVLPLLDVSDRFWLQMVAWWGQGSRAIVAFDNISISLDCYLTISGEDKILQNTAPKSRNLFERNPNKELKPGENSPRQTPIFDPTVHWLFTTCGASGPHGPTQAQCNNAYQNSNLSVEVGSEGPLKGIQIWKVPATDTYSISGYGAAGGKGGKNTMMRSHGVSVLGIFNLEKDDMLYILVGQQGEDACPSTNQLIQKVCIGENNVIEEEIRVNRSVHEWAGGGGGGGGATYVFKMKDGVPVPLIIAAGGGGRAYGAKTDTFHPERLENNSSVLGLNGNSGAAGGGGGWNDNTSLLWAGKSLQEGATGGHSCPQAMKKWGWETRGGFGGGGGGCSSGGGGGGYIGGNAASNNDPEMDGEDGVSFISPLGILYTPALKVMEGHGEVNIKHYLNCSHCEVDECHMDPESHKVICFCDHGTVLAEDGVSCIVSPTPEPHLPLSLILSVVTSALVAALVLAFSGIMIVYRRKHQELQAMQMELQSPEYKLSKLRTSTIMTDYNPNYCFAGKTSSISDLKEVPRKNITLIRGLGHGAFGEVYEGQVSGMPNDPSPLQVAVKTLPEVCSEQDELDFLMEALIISKFNHQNIVRCIGVSLQSLPRFILLELMAGGDLKSFLRETRPRPSQPSSLAMLDLLHVARDIACGCQYLEENHFIHRDIAARNCLLTCPGPGRVAKIGDFGMARDIYRASYYRKGGCAMLPVKWMPPEAFMEGIFTSKTDTWSFGVLLWEIFSLGYMPYPSKSNQEVLEFVTSGGRMDPPKNCPGPVYRIMTQCWQHQPEDRPNFAIILERIEYCTQDPDVINTALPIEYGPLVEEEEKVPVRPKDPEGVPPLLVSQQAKREEERSPAAPPPLPTTSSGKAAKKPTAAEISVRVPRGPAVEGGHVNMAFSQSNPPSELHKVHGSRNKPTSLWNPTYGSWFTEKPTKKNNPIAKKEPHDRGNLGLEGSCTVPPNVATGRLPGASLLLEPSSLTANMKEVPLFRLRHFPCGNVNYGYQQQGLPLEAATAPGAGHYEDTILKSKNSMNQPGP

> <PDB ID(s) of Target Chain>
2XB7,2XBA,3AOX,5FTO,5FTQ,6E0R,6EBW,6EDL,6MX8

> <UniProt (SwissProt) Recommended Name of Target Chain>
ALK tyrosine kinase receptor

> <UniProt (SwissProt) Entry Name of Target Chain>
ALK_HUMAN

> <UniProt (SwissProt) Primary ID of Target Chain>
Q9UM73

> <UniProt (SwissProt) Secondary ID(s) of Target Chain>
Q4ZFX9,Q53QQ6,Q53RZ4,Q59FI3,Q9Y4K6

> <UniProt (SwissProt) Alternative ID(s) of Target Chain>


> <UniProt (TrEMBL) Submitted Name of Target Chain>


> <UniProt (TrEMBL) Entry Name of Target Chain>


> <UniProt (TrEMBL) Primary ID of Target Chain>


> <UniProt (TrEMBL) Secondary ID(s) of Target Chain>


> <UniProt (TrEMBL) Alternative ID(s) of Target Chain>


$$$$

  SciTegic12191611462D

 40 43  0  0  0  0            999 V2000
   -6.5121    1.4924    0.0000 C   0  0
   -6.5141    2.6924    0.0000 C   0  0
   -7.5506    0.8910    0.0000 O   0  0
   -5.2109    0.7445    0.0000 N   0  0
   -3.9122    1.4966    0.0000 N   0  0
   -1.2964    1.4973    0.0000 C   0  0
   -2.6111    0.7486    0.0000 C   0  0
   -2.6111   -0.7486    0.0000 C   0  0
   -1.2964   -1.4973    0.0000 C   0  0
    0.0000   -0.7486    0.0000 C   0  0
    1.2964   -1.4973    0.0000 C   0  0
    2.5929   -0.7486    0.0000 C   0  0
    2.5929    0.7486    0.0000 C   0  0
    1.2964    1.4973    0.0000 C   0  0
    0.0000    0.7486    0.0000 C   0  0
   -0.2414    2.0691    0.0000 C   0  0
   -2.3479    2.0756    0.0000 C   0  0
    3.8911    1.5017    0.0000 O   0  0
    3.8894    2.7017    0.0000 C   0  0
    3.8911   -1.5017    0.0000 N   0  0
    3.8890   -3.0026    0.0000 C   0  0
    5.1854   -3.7571    0.0000 N   0  0
    5.1802   -5.2571    0.0000 C   0  0
    3.8786   -6.0026    0.0000 C   0  0
    2.5821   -5.2482    0.0000 C   0  0
    2.5873   -3.7482    0.0000 N   0  0
    6.4789   -6.0094    0.0000 N   0  0
    7.7802   -5.2616    0.0000 C   0  0
    9.0793   -6.0115    0.0000 C   0  0
   10.3783   -5.2615    0.0000 C   0  0
   10.3783   -3.7615    0.0000 C   0  0
    9.0793   -3.0115    0.0000 C   0  0
    7.7803   -3.7615    0.0000 C   0  0
    9.0794   -7.5124    0.0000 S   0  0
    7.7801   -8.2636    0.0000 C   0  0
    7.7802   -9.4636    0.0000 C   0  0
    6.7407   -7.6640    0.0000 C   0  0
    3.8744   -7.2026    0.0000 Cl  0  0
    9.0800   -8.7124    0.0000 O   0  0
   10.1188   -8.1120    0.0000 O   0  0
  1  2  1  0
  4  5  1  0
  1  3  2  0
  1  4  1  0
  6  7  1  0
  7  8  1  0
  8  9  1  0
  9 10  1  0
 10 11  1  0
 11 12  2  0
 12 13  1  0
 13 14  2  0
 14 15  1  0
  6 15  1  0
 10 15  2  0
  6 16  1  0
  6 17  1  0
 18 19  1  0
 13 18  1  0
 21 22  1  0
 22 23  2  0
 23 24  1  0
 24 25  2  0
 25 26  1  0
 21 26  2  0
 28 29  1  0
 29 30  2  0
 30 31  1  0
 31 32  2  0
 32 33  1  0
 28 33  2  0
 35 36  1  0
 35 37  1  0
 34 35  1  0
 29 34  1  0
 27 28  1  0
 23 27  1  0
 24 38  1  0
 20 21  1  0
 12 20  1  0
  5  7  2  0
 34 39  2  0
 34 40  2  0
M  END
> <From>
www.bindingDB.org

> <BindingDB Reactant_set_id>
50484648

> <Ligand InChI>
InChI=1S/C28H33ClN6O4S/c1-16(2)40(37,38)24-10-8-7-9-21(24)31-26-20(29)15-30-27(33-26)32-22-13-18-11-12-25(35-34-17(3)36)28(4,5)19(18)14-23(22)39-6/h7-10,13-16H,11-12H2,1-6H3,(H,34,36)(H2,30,31,32,33)/b35-25+

> <Ligand InChI Key>
QAMCTSUGODOACP-KVQDIILNSA-N

> <BindingDB MonomerID>
50157527

> <BindingDB Ligand Name>
CHEMBL3785497

> <Target Name Assigned by Curator or DataSource>
ALK tyrosine kinase receptor

> <Target Source Organism According to Curator or DataSource>
Homo sapiens

> <Ki (nM)>


> <IC50 (nM)>
 40

> <Kd (nM)>


> <EC50 (nM)>


> <kon (M-1-s-1)>


> <koff (s-1)>


> <pH>


> <Temp C>


> <Curation/DataSource>
ChEMBL

> <Article DOI>
10.1016/j.bmcl.2016.02.052

> <PMID>
26923695

> <PubChem AID>


> <Patent Number>


> <Authors>
Song, D; Lee, M; Park, CH; Ahn, S; Yun, CS; Lee, CO; Kim, HR; Hwang, JY

> <Institution>
Chungbuk National University

> <Link to Ligand in BindingDB>
http://www.bindingdb.org/bind/chemsearch/marvin/MolStructure.jsp?monomerid=50157527

> <Link to Ligand-Target Pair in BindingDB>
http://www.bindingdb.org/jsp/dbsearch/PrimarySearch_ki.jsp?energyterm=kJ/mole&tag=pol&polymerid=5809&target=ALK+tyrosine+kinase+receptor&column=ki&startPg=0&Increment=50&submit=Search

> <Link to Ligand-Target Pair in BindingDB>
http://www.bindingdb.org/jsp/dbsearch/PrimarySearch_ki.jsp?energyterm=kJ/mole&tag=r21&monomerid=50157527&enzyme=ALK+tyrosine+kinase+receptor&column=ki&startPg=0&Increment=50&submit=Search

> <Ligand HET ID in PDB>


> <PDB ID(s) for Ligand-Target Complex>


> <PubChem CID>
127031885

> <PubChem SID>
340134044

> <ChEBI ID of Ligand>


> <ChEMBL ID of Ligand>
CHEMBL3785497

> <DrugBank ID of Ligand>


> <IUPHAR_GRAC ID of Ligand>


> <KEGG ID of Ligand>


> <ZINC ID of Ligand>


> <Number of Protein Chains in Target (>1 implies a multichain complex)>
1

> <BindingDB Target Chain Sequence>
MGAIGLLWLLPLLLSTAAVGSGMGTGQRAGSPAAGPPLQPREPLSYSRLQRKSLAVDFVVPSLFRVYARDLLLPPSSSELKAGRPEARGSLALDCAPLLRLLGPAPGVSWTAGSPAPAEARTLSRVLKGGSVRKLRRAKQLVLELGEEAILEGCVGPPGEAAVGLLQFNLSELFSWWIRQGEGRLRIRLMPEKKASEVGREGRLSAAIRASQPRLLFQIFGTGHSSLESPTNMPSPSPDYFTWNLTWIMKDSFPFLSHRSRYGLECSFDFPCELEYSPPLHDLRNQSWSWRRIPSEEASQMDLLDGPGAERSKEMPRGSFLLLNTSADSKHTILSPWMRSSSEHCTLAVSVHRHLQPSGRYIAQLLPHNEAAREILLMPTPGKHGWTVLQGRIGRPDNPFRVALEYISSGNRSLSAVDFFALKNCSEGTSPGSKMALQSSFTCWNGTVLQLGQACDFHQDCAQGEDESQMCRKLPVGFYCNFEDGFCGWTQGTLSPHTPQWQVRTLKDARFQDHQDHALLLSTTDVPASESATVTSATFPAPIKSSPCELRMSWLIRGVLRGNVSLVLVENKTGKEQGRMVWHVAAYEGLSLWQWMVLPLLDVSDRFWLQMVAWWGQGSRAIVAFDNISISLDCYLTISGEDKILQNTAPKSRNLFERNPNKELKPGENSPRQTPIFDPTVHWLFTTCGASGPHGPTQAQCNNAYQNSNLSVEVGSEGPLKGIQIWKVPATDTYSISGYGAAGGKGGKNTMMRSHGVSVLGIFNLEKDDMLYILVGQQGEDACPSTNQLIQKVCIGENNVIEEEIRVNRSVHEWAGGGGGGGGATYVFKMKDGVPVPLIIAAGGGGRAYGAKTDTFHPERLENNSSVLGLNGNSGAAGGGGGWNDNTSLLWAGKSLQEGATGGHSCPQAMKKWGWETRGGFGGGGGGCSSGGGGGGYIGGNAASNNDPEMDGEDGVSFISPLGILYTPALKVMEGHGEVNIKHYLNCSHCEVDECHMDPESHKVICFCDHGTVLAEDGVSCIVSPTPEPHLPLSLILSVVTSALVAALVLAFSGIMIVYRRKHQELQAMQMELQSPEYKLSKLRTSTIMTDYNPNYCFAGKTSSISDLKEVPRKNITLIRGLGHGAFGEVYEGQVSGMPNDPSPLQVAVKTLPEVCSEQDELDFLMEALIISKFNHQNIVRCIGVSLQSLPRFILLELMAGGDLKSFLRETRPRPSQPSSLAMLDLLHVARDIACGCQYLEENHFIHRDIAARNCLLTCPGPGRVAKIGDFGMARDIYRASYYRKGGCAMLPVKWMPPEAFMEGIFTSKTDTWSFGVLLWEIFSLGYMPYPSKSNQEVLEFVTSGGRMDPPKNCPGPVYRIMTQCWQHQPEDRPNFAIILERIEYCTQDPDVINTALPIEYGPLVEEEEKVPVRPKDPEGVPPLLVSQQAKREEERSPAAPPPLPTTSSGKAAKKPTAAEISVRVPRGPAVEGGHVNMAFSQSNPPSELHKVHGSRNKPTSLWNPTYGSWFTEKPTKKNNPIAKKEPHDRGNLGLEGSCTVPPNVATGRLPGASLLLEPSSLTANMKEVPLFRLRHFPCGNVNYGYQQQGLPLEAATAPGAGHYEDTILKSKNSMNQPGP

> <PDB ID(s) of Target Chain>
2XB7,2XBA,3AOX,5FTO,5FTQ,6E0R,6EBW,6EDL,6MX8

> <UniProt (SwissProt) Recommended Name of Target Chain>
ALK tyrosine kinase receptor

> <UniProt (SwissProt) Entry Name of Target Chain>
ALK_HUMAN

> <UniProt (SwissProt) Primary ID of Target Chain>
Q9UM73

> <UniProt (SwissProt) Secondary ID(s) of Target Chain>
Q4ZFX9,Q53QQ6,Q53RZ4,Q59FI3,Q9Y4K6

> <UniProt (SwissProt) Alternative ID(s) of Target Chain>


> <UniProt (TrEMBL) Submitted Name of Target Chain>


> <UniProt (TrEMBL) Entry Name of Target Chain>


> <UniProt (TrEMBL) Primary ID of Target Chain>


> <UniProt (TrEMBL) Secondary ID(s) of Target Chain>


> <UniProt (TrEMBL) Alternative ID(s) of Target Chain>


$$$$

  SciTegic12191611462D

 40 43  0  0  0  0            999 V2000
   -5.2109    0.7445    0.0000 N   0  0
   -3.9122    1.4966    0.0000 N   0  0
   -6.5121    1.4924    0.0000 C   0  0
   -7.5506    0.8910    0.0000 O   0  0
   -6.5141    2.6924    0.0000 N   0  0
   -1.2964    1.4973    0.0000 C   0  0
   -2.6111    0.7486    0.0000 C   0  0
   -2.6111   -0.7486    0.0000 C   0  0
   -1.2964   -1.4973    0.0000 C   0  0
    0.0000   -0.7486    0.0000 C   0  0
    1.2964   -1.4973    0.0000 C   0  0
    2.5929   -0.7486    0.0000 C   0  0
    2.5929    0.7486    0.0000 C   0  0
    1.2964    1.4973    0.0000 C   0  0
    0.0000    0.7486    0.0000 C   0  0
   -0.2414    2.0691    0.0000 C   0  0
   -2.3479    2.0756    0.0000 C   0  0
    3.8911    1.5017    0.0000 O   0  0
    3.8894    2.7017    0.0000 C   0  0
    3.8911   -1.5017    0.0000 N   0  0
    3.8890   -3.0026    0.0000 C   0  0
    5.1854   -3.7571    0.0000 N   0  0
    5.1802   -5.2571    0.0000 C   0  0
    3.8786   -6.0026    0.0000 C   0  0
    2.5821   -5.2482    0.0000 C   0  0
    2.5873   -3.7482    0.0000 N   0  0
    6.4789   -6.0094    0.0000 N   0  0
    7.7802   -5.2616    0.0000 C   0  0
    9.0793   -6.0115    0.0000 C   0  0
   10.3783   -5.2615    0.0000 C   0  0
   10.3783   -3.7615    0.0000 C   0  0
    9.0793   -3.0115    0.0000 C   0  0
    7.7803   -3.7615    0.0000 C   0  0
    9.0794   -7.5124    0.0000 S   0  0
    7.7801   -8.2636    0.0000 C   0  0
    7.7802   -9.4636    0.0000 C   0  0
    6.7407   -7.6640    0.0000 C   0  0
    3.8744   -7.2026    0.0000 Cl  0  0
    9.0800   -8.7124    0.0000 O   0  0
   10.1188   -8.1120    0.0000 O   0  0
  1  2  1  0
  3  4  2  0
  3  5  1  0
  1  3  1  0
  6  7  1  0
  7  8  1  0
  8  9  1  0
  9 10  1  0
 10 11  1  0
 11 12  2  0
 12 13  1  0
 13 14  2  0
 14 15  1  0
  6 15  1  0
 10 15  2  0
  6 16  1  0
  6 17  1  0
 18 19  1  0
 13 18  1  0
 21 22  1  0
 22 23  2  0
 23 24  1  0
 24 25  2  0
 25 26  1  0
 21 26  2  0
 28 29  1  0
 29 30  2  0
 30 31  1  0
 31 32  2  0
 32 33  1  0
 28 33  2  0
 35 36  1  0
 35 37  1  0
 34 35  1  0
 29 34  1  0
 27 28  1  0
 23 27  1  0
 24 38  1  0
 20 21  1  0
 12 20  1  0
  2  7  2  0
 34 39  2  0
 34 40  2  0
M  END
> <From>
www.bindingDB.org

> <BindingDB Reactant_set_id>
50484649

> <Ligand InChI>
InChI=1S/C27H32ClN7O4S/c1-15(2)40(37,38)22-9-7-6-8-19(22)31-24-18(28)14-30-26(33-24)32-20-12-16-10-11-23(34-35-25(29)36)27(3,4)17(16)13-21(20)39-5/h6-9,12-15H,10-11H2,1-5H3,(H3,29,35,36)(H2,30,31,32,33)/b34-23+

> <Ligand InChI Key>
GHSPDHNQBYYRPD-PPFNPFNJSA-N

> <BindingDB MonomerID>
50157528

> <BindingDB Ligand Name>
CHEMBL3786127

> <Target Name Assigned by Curator or DataSource>
ALK tyrosine kinase receptor

> <Target Source Organism According to Curator or DataSource>
Homo sapiens

> <Ki (nM)>


> <IC50 (nM)>
 42

> <Kd (nM)>


> <EC50 (nM)>


> <kon (M-1-s-1)>


> <koff (s-1)>


> <pH>


> <Temp C>


> <Curation/DataSource>
ChEMBL

> <Article DOI>
10.1016/j.bmcl.2016.02.052

> <PMID>
26923695

> <PubChem AID>


> <Patent Number>


> <Authors>
Song, D; Lee, M; Park, CH; Ahn, S; Yun, CS; Lee, CO; Kim, HR; Hwang, JY

> <Institution>
Chungbuk National University

> <Link to Ligand in BindingDB>
http://www.bindingdb.org/bind/chemsearch/marvin/MolStructure.jsp?monomerid=50157528

> <Link to Ligand-Target Pair in BindingDB>
http://www.bindingdb.org/jsp/dbsearch/PrimarySearch_ki.jsp?energyterm=kJ/mole&tag=pol&polymerid=5809&target=ALK+tyrosine+kinase+receptor&column=ki&startPg=0&Increment=50&submit=Search

> <Link to Ligand-Target Pair in BindingDB>
http://www.bindingdb.org/jsp/dbsearch/PrimarySearch_ki.jsp?energyterm=kJ/mole&tag=r21&monomerid=50157528&enzyme=ALK+tyrosine+kinase+receptor&column=ki&startPg=0&Increment=50&submit=Search

> <Ligand HET ID in PDB>


> <PDB ID(s) for Ligand-Target Complex>


> <PubChem CID>
127030997

> <PubChem SID>
340134045

> <ChEBI ID of Ligand>


> <ChEMBL ID of Ligand>
CHEMBL3786127

> <DrugBank ID of Ligand>


> <IUPHAR_GRAC ID of Ligand>


> <KEGG ID of Ligand>


> <ZINC ID of Ligand>


> <Number of Protein Chains in Target (>1 implies a multichain complex)>
1

> <BindingDB Target Chain Sequence>
MGAIGLLWLLPLLLSTAAVGSGMGTGQRAGSPAAGPPLQPREPLSYSRLQRKSLAVDFVVPSLFRVYARDLLLPPSSSELKAGRPEARGSLALDCAPLLRLLGPAPGVSWTAGSPAPAEARTLSRVLKGGSVRKLRRAKQLVLELGEEAILEGCVGPPGEAAVGLLQFNLSELFSWWIRQGEGRLRIRLMPEKKASEVGREGRLSAAIRASQPRLLFQIFGTGHSSLESPTNMPSPSPDYFTWNLTWIMKDSFPFLSHRSRYGLECSFDFPCELEYSPPLHDLRNQSWSWRRIPSEEASQMDLLDGPGAERSKEMPRGSFLLLNTSADSKHTILSPWMRSSSEHCTLAVSVHRHLQPSGRYIAQLLPHNEAAREILLMPTPGKHGWTVLQGRIGRPDNPFRVALEYISSGNRSLSAVDFFALKNCSEGTSPGSKMALQSSFTCWNGTVLQLGQACDFHQDCAQGEDESQMCRKLPVGFYCNFEDGFCGWTQGTLSPHTPQWQVRTLKDARFQDHQDHALLLSTTDVPASESATVTSATFPAPIKSSPCELRMSWLIRGVLRGNVSLVLVENKTGKEQGRMVWHVAAYEGLSLWQWMVLPLLDVSDRFWLQMVAWWGQGSRAIVAFDNISISLDCYLTISGEDKILQNTAPKSRNLFERNPNKELKPGENSPRQTPIFDPTVHWLFTTCGASGPHGPTQAQCNNAYQNSNLSVEVGSEGPLKGIQIWKVPATDTYSISGYGAAGGKGGKNTMMRSHGVSVLGIFNLEKDDMLYILVGQQGEDACPSTNQLIQKVCIGENNVIEEEIRVNRSVHEWAGGGGGGGGATYVFKMKDGVPVPLIIAAGGGGRAYGAKTDTFHPERLENNSSVLGLNGNSGAAGGGGGWNDNTSLLWAGKSLQEGATGGHSCPQAMKKWGWETRGGFGGGGGGCSSGGGGGGYIGGNAASNNDPEMDGEDGVSFISPLGILYTPALKVMEGHGEVNIKHYLNCSHCEVDECHMDPESHKVICFCDHGTVLAEDGVSCIVSPTPEPHLPLSLILSVVTSALVAALVLAFSGIMIVYRRKHQELQAMQMELQSPEYKLSKLRTSTIMTDYNPNYCFAGKTSSISDLKEVPRKNITLIRGLGHGAFGEVYEGQVSGMPNDPSPLQVAVKTLPEVCSEQDELDFLMEALIISKFNHQNIVRCIGVSLQSLPRFILLELMAGGDLKSFLRETRPRPSQPSSLAMLDLLHVARDIACGCQYLEENHFIHRDIAARNCLLTCPGPGRVAKIGDFGMARDIYRASYYRKGGCAMLPVKWMPPEAFMEGIFTSKTDTWSFGVLLWEIFSLGYMPYPSKSNQEVLEFVTSGGRMDPPKNCPGPVYRIMTQCWQHQPEDRPNFAIILERIEYCTQDPDVINTALPIEYGPLVEEEEKVPVRPKDPEGVPPLLVSQQAKREEERSPAAPPPLPTTSSGKAAKKPTAAEISVRVPRGPAVEGGHVNMAFSQSNPPSELHKVHGSRNKPTSLWNPTYGSWFTEKPTKKNNPIAKKEPHDRGNLGLEGSCTVPPNVATGRLPGASLLLEPSSLTANMKEVPLFRLRHFPCGNVNYGYQQQGLPLEAATAPGAGHYEDTILKSKNSMNQPGP

> <PDB ID(s) of Target Chain>
2XB7,2XBA,3AOX,5FTO,5FTQ,6E0R,6EBW,6EDL,6MX8

> <UniProt (SwissProt) Recommended Name of Target Chain>
ALK tyrosine kinase receptor

> <UniProt (SwissProt) Entry Name of Target Chain>
ALK_HUMAN

> <UniProt (SwissProt) Primary ID of Target Chain>
Q9UM73

> <UniProt (SwissProt) Secondary ID(s) of Target Chain>
Q4ZFX9,Q53QQ6,Q53RZ4,Q59FI3,Q9Y4K6

> <UniProt (SwissProt) Alternative ID(s) of Target Chain>


> <UniProt (TrEMBL) Submitted Name of Target Chain>


> <UniProt (TrEMBL) Entry Name of Target Chain>


> <UniProt (TrEMBL) Primary ID of Target Chain>


> <UniProt (TrEMBL) Secondary ID(s) of Target Chain>


> <UniProt (TrEMBL) Alternative ID(s) of Target Chain>


$$$$

  SciTegic12191611462D

 40 43  0  0  0  0            999 V2000
   -5.2109    0.7445    0.0000 N   0  0
   -3.9122    1.4966    0.0000 N   0  0
   -6.5121    1.4924    0.0000 C   0  0
   -7.5506    0.8910    0.0000 N   0  0
   -6.5141    2.6924    0.0000 N   0  0
   -1.2964    1.4973    0.0000 C   0  0
   -2.6111    0.7486    0.0000 C   0  0
   -2.6111   -0.7486    0.0000 C   0  0
   -1.2964   -1.4973    0.0000 C   0  0
    0.0000   -0.7486    0.0000 C   0  0
    1.2964   -1.4973    0.0000 C   0  0
    2.5929   -0.7486    0.0000 C   0  0
    2.5929    0.7486    0.0000 C   0  0
    1.2964    1.4973    0.0000 C   0  0
    0.0000    0.7486    0.0000 C   0  0
   -0.2414    2.0691    0.0000 C   0  0
   -2.3479    2.0756    0.0000 C   0  0
    3.8911    1.5017    0.0000 O   0  0
    3.8894    2.7017    0.0000 C   0  0
    3.8911   -1.5017    0.0000 N   0  0
    3.8890   -3.0026    0.0000 C   0  0
    5.1854   -3.7571    0.0000 N   0  0
    5.1802   -5.2571    0.0000 C   0  0
    3.8786   -6.0026    0.0000 C   0  0
    2.5821   -5.2482    0.0000 C   0  0
    2.5873   -3.7482    0.0000 N   0  0
    6.4789   -6.0094    0.0000 N   0  0
    7.7802   -5.2616    0.0000 C   0  0
    9.0793   -6.0115    0.0000 C   0  0
   10.3783   -5.2615    0.0000 C   0  0
   10.3783   -3.7615    0.0000 C   0  0
    9.0793   -3.0115    0.0000 C   0  0
    7.7803   -3.7615    0.0000 C   0  0
    9.0794   -7.5124    0.0000 S   0  0
    7.7801   -8.2636    0.0000 C   0  0
    7.7802   -9.4636    0.0000 C   0  0
    6.7407   -7.6640    0.0000 C   0  0
    3.8744   -7.2026    0.0000 Cl  0  0
    9.0800   -8.7124    0.0000 O   0  0
   10.1188   -8.1120    0.0000 O   0  0
  1  2  1  0
  3  4  2  0
  3  5  1  0
  1  3  1  0
  6  7  1  0
  7  8  1  0
  8  9  1  0
  9 10  1  0
 10 11  1  0
 11 12  2  0
 12 13  1  0
 13 14  2  0
 14 15  1  0
  6 15  1  0
 10 15  2  0
  6 16  1  0
  6 17  1  0
 18 19  1  0
 13 18  1  0
 21 22  1  0
 22 23  2  0
 23 24  1  0
 24 25  2  0
 25 26  1  0
 21 26  2  0
 28 29  1  0
 29 30  2  0
 30 31  1  0
 31 32  2  0
 32 33  1  0
 28 33  2  0
 35 36  1  0
 35 37  1  0
 34 35  1  0
 29 34  1  0
 27 28  1  0
 23 27  1  0
 24 38  1  0
 20 21  1  0
 12 20  1  0
  2  7  2  0
 34 39  2  0
 34 40  2  0
M  END
> <From>
www.bindingDB.org

> <BindingDB Reactant_set_id>
50484650

> <Ligand InChI>
InChI=1S/C27H33ClN8O3S/c1-15(2)40(37,38)22-9-7-6-8-19(22)32-24-18(28)14-31-26(34-24)33-20-12-16-10-11-23(35-36-25(29)30)27(3,4)17(16)13-21(20)39-5/h6-9,12-15H,10-11H2,1-5H3,(H4,29,30,36)(H2,31,32,33,34)/b35-23+

> <Ligand InChI Key>
LSCDZQIBQGIXAQ-QCFMCPCVSA-N

> <BindingDB MonomerID>
50157529

> <BindingDB Ligand Name>
CHEMBL3786763

> <Target Name Assigned by Curator or DataSource>
ALK tyrosine kinase receptor

> <Target Source Organism According to Curator or DataSource>
Homo sapiens

> <Ki (nM)>


> <IC50 (nM)>
 37

> <Kd (nM)>


> <EC50 (nM)>


> <kon (M-1-s-1)>


> <koff (s-1)>


> <pH>


> <Temp C>


> <Curation/DataSource>
ChEMBL

> <Article DOI>
10.1016/j.bmcl.2016.02.052

> <PMID>
26923695

> <PubChem AID>


> <Patent Number>


> <Authors>
Song, D; Lee, M; Park, CH; Ahn, S; Yun, CS; Lee, CO; Kim, HR; Hwang, JY

> <Institution>
Chungbuk National University

> <Link to Ligand in BindingDB>
http://www.bindingdb.org/bind/chemsearch/marvin/MolStructure.jsp?monomerid=50157529

> <Link to Ligand-Target Pair in BindingDB>
http://www.bindingdb.org/jsp/dbsearch/PrimarySearch_ki.jsp?energyterm=kJ/mole&tag=pol&polymerid=5809&target=ALK+tyrosine+kinase+receptor&column=ki&startPg=0&Increment=50&submit=Search

> <Link to Ligand-Target Pair in BindingDB>
http://www.bindingdb.org/jsp/dbsearch/PrimarySearch_ki.jsp?energyterm=kJ/mole&tag=r21&monomerid=50157529&enzyme=ALK+tyrosine+kinase+receptor&column=ki&startPg=0&Increment=50&submit=Search

> <Ligand HET ID in PDB>


> <PDB ID(s) for Ligand-Target Complex>


> <PubChem CID>
127030998

> <PubChem SID>
340134046

> <ChEBI ID of Ligand>


> <ChEMBL ID of Ligand>
CHEMBL3786763

> <DrugBank ID of Ligand>


> <IUPHAR_GRAC ID of Ligand>


> <KEGG ID of Ligand>


> <ZINC ID of Ligand>


> <Number of Protein Chains in Target (>1 implies a multichain complex)>
1

> <BindingDB Target Chain Sequence>
MGAIGLLWLLPLLLSTAAVGSGMGTGQRAGSPAAGPPLQPREPLSYSRLQRKSLAVDFVVPSLFRVYARDLLLPPSSSELKAGRPEARGSLALDCAPLLRLLGPAPGVSWTAGSPAPAEARTLSRVLKGGSVRKLRRAKQLVLELGEEAILEGCVGPPGEAAVGLLQFNLSELFSWWIRQGEGRLRIRLMPEKKASEVGREGRLSAAIRASQPRLLFQIFGTGHSSLESPTNMPSPSPDYFTWNLTWIMKDSFPFLSHRSRYGLECSFDFPCELEYSPPLHDLRNQSWSWRRIPSEEASQMDLLDGPGAERSKEMPRGSFLLLNTSADSKHTILSPWMRSSSEHCTLAVSVHRHLQPSGRYIAQLLPHNEAAREILLMPTPGKHGWTVLQGRIGRPDNPFRVALEYISSGNRSLSAVDFFALKNCSEGTSPGSKMALQSSFTCWNGTVLQLGQACDFHQDCAQGEDESQMCRKLPVGFYCNFEDGFCGWTQGTLSPHTPQWQVRTLKDARFQDHQDHALLLSTTDVPASESATVTSATFPAPIKSSPCELRMSWLIRGVLRGNVSLVLVENKTGKEQGRMVWHVAAYEGLSLWQWMVLPLLDVSDRFWLQMVAWWGQGSRAIVAFDNISISLDCYLTISGEDKILQNTAPKSRNLFERNPNKELKPGENSPRQTPIFDPTVHWLFTTCGASGPHGPTQAQCNNAYQNSNLSVEVGSEGPLKGIQIWKVPATDTYSISGYGAAGGKGGKNTMMRSHGVSVLGIFNLEKDDMLYILVGQQGEDACPSTNQLIQKVCIGENNVIEEEIRVNRSVHEWAGGGGGGGGATYVFKMKDGVPVPLIIAAGGGGRAYGAKTDTFHPERLENNSSVLGLNGNSGAAGGGGGWNDNTSLLWAGKSLQEGATGGHSCPQAMKKWGWETRGGFGGGGGGCSSGGGGGGYIGGNAASNNDPEMDGEDGVSFISPLGILYTPALKVMEGHGEVNIKHYLNCSHCEVDECHMDPESHKVICFCDHGTVLAEDGVSCIVSPTPEPHLPLSLILSVVTSALVAALVLAFSGIMIVYRRKHQELQAMQMELQSPEYKLSKLRTSTIMTDYNPNYCFAGKTSSISDLKEVPRKNITLIRGLGHGAFGEVYEGQVSGMPNDPSPLQVAVKTLPEVCSEQDELDFLMEALIISKFNHQNIVRCIGVSLQSLPRFILLELMAGGDLKSFLRETRPRPSQPSSLAMLDLLHVARDIACGCQYLEENHFIHRDIAARNCLLTCPGPGRVAKIGDFGMARDIYRASYYRKGGCAMLPVKWMPPEAFMEGIFTSKTDTWSFGVLLWEIFSLGYMPYPSKSNQEVLEFVTSGGRMDPPKNCPGPVYRIMTQCWQHQPEDRPNFAIILERIEYCTQDPDVINTALPIEYGPLVEEEEKVPVRPKDPEGVPPLLVSQQAKREEERSPAAPPPLPTTSSGKAAKKPTAAEISVRVPRGPAVEGGHVNMAFSQSNPPSELHKVHGSRNKPTSLWNPTYGSWFTEKPTKKNNPIAKKEPHDRGNLGLEGSCTVPPNVATGRLPGASLLLEPSSLTANMKEVPLFRLRHFPCGNVNYGYQQQGLPLEAATAPGAGHYEDTILKSKNSMNQPGP

> <PDB ID(s) of Target Chain>
2XB7,2XBA,3AOX,5FTO,5FTQ,6E0R,6EBW,6EDL,6MX8

> <UniProt (SwissProt) Recommended Name of Target Chain>
ALK tyrosine kinase receptor

> <UniProt (SwissProt) Entry Name of Target Chain>
ALK_HUMAN

> <UniProt (SwissProt) Primary ID of Target Chain>
Q9UM73

> <UniProt (SwissProt) Secondary ID(s) of Target Chain>
Q4ZFX9,Q53QQ6,Q53RZ4,Q59FI3,Q9Y4K6

> <UniProt (SwissProt) Alternative ID(s) of Target Chain>


> <UniProt (TrEMBL) Submitted Name of Target Chain>


> <UniProt (TrEMBL) Entry Name of Target Chain>


> <UniProt (TrEMBL) Primary ID of Target Chain>


> <UniProt (TrEMBL) Secondary ID(s) of Target Chain>


> <UniProt (TrEMBL) Alternative ID(s) of Target Chain>


$$$$

  SciTegic12191611462D

 42 46  0  0  0  0            999 V2000
  -10.1357    8.1133    0.0000 O   0  0
   -9.0963    7.5134    0.0000 S   0  0
   -9.0967    8.7134    0.0000 O   0  0
   -3.9067    3.0027    0.0000 C   0  0
   -5.2030    3.7575    0.0000 N   0  0
   -5.1976    5.2575    0.0000 C   0  0
   -3.8958    6.0028    0.0000 C   0  0
   -2.5995    5.2481    0.0000 C   0  0
   -2.6050    3.7481    0.0000 N   0  0
   -3.9091    1.5019    0.0000 N   0  0
   -6.4962    6.0100    0.0000 N   0  0
   -1.2964    1.4973    0.0000 C   0  0
   -2.6111    0.7486    0.0000 C   0  0
   -2.6111   -0.7486    0.0000 C   0  0
   -1.2964   -1.4973    0.0000 C   0  0
    0.0000   -0.7486    0.0000 C   0  0
    1.2964   -1.4973    0.0000 C   0  0
    2.5929   -0.7486    0.0000 C   0  0
    2.5929    0.7486    0.0000 C   0  0
    1.2964    1.4973    0.0000 C   0  0
    0.0000    0.7486    0.0000 C   0  0
    3.8942   -1.4964    0.0000 N   0  0
    7.7858    0.7649    0.0000 O   0  0
    7.7910   -0.7351    0.0000 C   0  0
    6.4946   -1.4896    0.0000 C   0  0
    5.1929   -0.7441    0.0000 N   0  0
    5.1877    0.7559    0.0000 C   0  0
    6.4842    1.5104    0.0000 C   0  0
    0.2433   -2.0726    0.0000 C   0  0
    2.3495   -2.0727    0.0000 C   0  0
   -3.9091   -1.5019    0.0000 O   0  0
   -3.9072   -2.7019    0.0000 C   0  0
   -7.7976    5.2625    0.0000 C   0  0
   -9.0965    6.0126    0.0000 C   0  0
  -10.3957    5.2628    0.0000 C   0  0
  -10.3960    3.7628    0.0000 C   0  0
   -9.0971    3.0126    0.0000 C   0  0
   -7.7979    3.7624    0.0000 C   0  0
   -7.7970    8.2645    0.0000 C   0  0
   -7.7968    9.4645    0.0000 C   0  0
   -6.7576    7.6647    0.0000 C   0  0
   -3.8915    7.2028    0.0000 Cl  0  0
  2  1  2  0
  3  2  2  0
  4  5  1  0
  5  6  2  0
  6  7  1  0
  7  8  2  0
  8  9  1  0
  4  9  2  0
  4 10  1  0
  6 11  1  0
 12 13  1  0
 13 14  2  0
 14 15  1  0
 15 16  2  0
 16 17  1  0
 17 18  1  0
 18 19  1  0
 19 20  1  0
 20 21  1  0
 12 21  2  0
 16 21  1  0
 23 24  1  0
 24 25  1  0
 25 26  1  0
 26 27  1  0
 27 28  1  0
 23 28  1  0
 22 26  1  0
 18 22  2  0
 17 29  1  0
 17 30  1  0
 31 32  1  0
 14 31  1  0
 10 13  1  0
 33 34  1  0
 34 35  2  0
 35 36  1  0
 36 37  2  0
 37 38  1  0
 33 38  2  0
 39 40  1  0
 39 41  1  0
  2 39  1  0
 34  2  1  0
 11 33  1  0
  7 42  1  0
M  END
> <From>
www.bindingDB.org

> <BindingDB Reactant_set_id>
50484515

> <Ligand InChI>
InChI=1S/C30H37ClN6O4S/c1-19(2)42(38,39)26-9-7-6-8-23(26)33-28-22(31)18-32-29(35-28)34-24-16-20-10-11-27(36-37-12-14-41-15-13-37)30(3,4)21(20)17-25(24)40-5/h6-9,16-19H,10-15H2,1-5H3,(H2,32,33,34,35)/b36-27+

> <Ligand InChI Key>
PFSMCDKQRZABAK-KJFHWCLQSA-N

> <BindingDB MonomerID>
50157530

> <BindingDB Ligand Name>
CHEMBL3785538

> <Target Name Assigned by Curator or DataSource>
ALK tyrosine kinase receptor

> <Target Source Organism According to Curator or DataSource>
Homo sapiens

> <Ki (nM)>


> <IC50 (nM)>
 40

> <Kd (nM)>


> <EC50 (nM)>


> <kon (M-1-s-1)>


> <koff (s-1)>


> <pH>


> <Temp C>


> <Curation/DataSource>
ChEMBL

> <Article DOI>
10.1016/j.bmcl.2016.02.052

> <PMID>
26923695

> <PubChem AID>


> <Patent Number>


> <Authors>
Song, D; Lee, M; Park, CH; Ahn, S; Yun, CS; Lee, CO; Kim, HR; Hwang, JY

> <Institution>
Chungbuk National University

> <Link to Ligand in BindingDB>
http://www.bindingdb.org/bind/chemsearch/marvin/MolStructure.jsp?monomerid=50157530

> <Link to Ligand-Target Pair in BindingDB>
http://www.bindingdb.org/jsp/dbsearch/PrimarySearch_ki.jsp?energyterm=kJ/mole&tag=pol&polymerid=5809&target=ALK+tyrosine+kinase+receptor&column=ki&startPg=0&Increment=50&submit=Search

> <Link to Ligand-Target Pair in BindingDB>
http://www.bindingdb.org/jsp/dbsearch/PrimarySearch_ki.jsp?energyterm=kJ/mole&tag=r21&monomerid=50157530&enzyme=ALK+tyrosine+kinase+receptor&column=ki&startPg=0&Increment=50&submit=Search

> <Ligand HET ID in PDB>


> <PDB ID(s) for Ligand-Target Complex>


> <PubChem CID>
127031000

> <PubChem SID>
340134047

> <ChEBI ID of Ligand>


> <ChEMBL ID of Ligand>
CHEMBL3785538

> <DrugBank ID of Ligand>


> <IUPHAR_GRAC ID of Ligand>


> <KEGG ID of Ligand>


> <ZINC ID of Ligand>


> <Number of Protein Chains in Target (>1 implies a multichain complex)>
1

> <BindingDB Target Chain Sequence>
MGAIGLLWLLPLLLSTAAVGSGMGTGQRAGSPAAGPPLQPREPLSYSRLQRKSLAVDFVVPSLFRVYARDLLLPPSSSELKAGRPEARGSLALDCAPLLRLLGPAPGVSWTAGSPAPAEARTLSRVLKGGSVRKLRRAKQLVLELGEEAILEGCVGPPGEAAVGLLQFNLSELFSWWIRQGEGRLRIRLMPEKKASEVGREGRLSAAIRASQPRLLFQIFGTGHSSLESPTNMPSPSPDYFTWNLTWIMKDSFPFLSHRSRYGLECSFDFPCELEYSPPLHDLRNQSWSWRRIPSEEASQMDLLDGPGAERSKEMPRGSFLLLNTSADSKHTILSPWMRSSSEHCTLAVSVHRHLQPSGRYIAQLLPHNEAAREILLMPTPGKHGWTVLQGRIGRPDNPFRVALEYISSGNRSLSAVDFFALKNCSEGTSPGSKMALQSSFTCWNGTVLQLGQACDFHQDCAQGEDESQMCRKLPVGFYCNFEDGFCGWTQGTLSPHTPQWQVRTLKDARFQDHQDHALLLSTTDVPASESATVTSATFPAPIKSSPCELRMSWLIRGVLRGNVSLVLVENKTGKEQGRMVWHVAAYEGLSLWQWMVLPLLDVSDRFWLQMVAWWGQGSRAIVAFDNISISLDCYLTISGEDKILQNTAPKSRNLFERNPNKELKPGENSPRQTPIFDPTVHWLFTTCGASGPHGPTQAQCNNAYQNSNLSVEVGSEGPLKGIQIWKVPATDTYSISGYGAAGGKGGKNTMMRSHGVSVLGIFNLEKDDMLYILVGQQGEDACPSTNQLIQKVCIGENNVIEEEIRVNRSVHEWAGGGGGGGGATYVFKMKDGVPVPLIIAAGGGGRAYGAKTDTFHPERLENNSSVLGLNGNSGAAGGGGGWNDNTSLLWAGKSLQEGATGGHSCPQAMKKWGWETRGGFGGGGGGCSSGGGGGGYIGGNAASNNDPEMDGEDGVSFISPLGILYTPALKVMEGHGEVNIKHYLNCSHCEVDECHMDPESHKVICFCDHGTVLAEDGVSCIVSPTPEPHLPLSLILSVVTSALVAALVLAFSGIMIVYRRKHQELQAMQMELQSPEYKLSKLRTSTIMTDYNPNYCFAGKTSSISDLKEVPRKNITLIRGLGHGAFGEVYEGQVSGMPNDPSPLQVAVKTLPEVCSEQDELDFLMEALIISKFNHQNIVRCIGVSLQSLPRFILLELMAGGDLKSFLRETRPRPSQPSSLAMLDLLHVARDIACGCQYLEENHFIHRDIAARNCLLTCPGPGRVAKIGDFGMARDIYRASYYRKGGCAMLPVKWMPPEAFMEGIFTSKTDTWSFGVLLWEIFSLGYMPYPSKSNQEVLEFVTSGGRMDPPKNCPGPVYRIMTQCWQHQPEDRPNFAIILERIEYCTQDPDVINTALPIEYGPLVEEEEKVPVRPKDPEGVPPLLVSQQAKREEERSPAAPPPLPTTSSGKAAKKPTAAEISVRVPRGPAVEGGHVNMAFSQSNPPSELHKVHGSRNKPTSLWNPTYGSWFTEKPTKKNNPIAKKEPHDRGNLGLEGSCTVPPNVATGRLPGASLLLEPSSLTANMKEVPLFRLRHFPCGNVNYGYQQQGLPLEAATAPGAGHYEDTILKSKNSMNQPGP

> <PDB ID(s) of Target Chain>
2XB7,2XBA,3AOX,5FTO,5FTQ,6E0R,6EBW,6EDL,6MX8

> <UniProt (SwissProt) Recommended Name of Target Chain>
ALK tyrosine kinase receptor

> <UniProt (SwissProt) Entry Name of Target Chain>
ALK_HUMAN

> <UniProt (SwissProt) Primary ID of Target Chain>
Q9UM73

> <UniProt (SwissProt) Secondary ID(s) of Target Chain>
Q4ZFX9,Q53QQ6,Q53RZ4,Q59FI3,Q9Y4K6

> <UniProt (SwissProt) Alternative ID(s) of Target Chain>


> <UniProt (TrEMBL) Submitted Name of Target Chain>


> <UniProt (TrEMBL) Entry Name of Target Chain>


> <UniProt (TrEMBL) Primary ID of Target Chain>


> <UniProt (TrEMBL) Secondary ID(s) of Target Chain>


> <UniProt (TrEMBL) Alternative ID(s) of Target Chain>


$$$$

  SciTegic12191611462D

 36 39  0  0  0  0            999 V2000
  -10.1357    8.1133    0.0000 O   0  0
   -9.0963    7.5134    0.0000 S   0  0
   -9.0967    8.7134    0.0000 O   0  0
   -3.9067    3.0027    0.0000 C   0  0
   -5.2030    3.7575    0.0000 N   0  0
   -5.1976    5.2575    0.0000 C   0  0
   -3.8958    6.0028    0.0000 C   0  0
   -2.5995    5.2481    0.0000 C   0  0
   -2.6050    3.7481    0.0000 N   0  0
   -3.9091    1.5019    0.0000 N   0  0
   -6.4962    6.0100    0.0000 N   0  0
   -7.7976    5.2625    0.0000 C   0  0
   -9.0965    6.0126    0.0000 C   0  0
  -10.3957    5.2628    0.0000 C   0  0
  -10.3960    3.7628    0.0000 C   0  0
   -9.0971    3.0126    0.0000 C   0  0
   -7.7979    3.7624    0.0000 C   0  0
   -7.7970    8.2645    0.0000 C   0  0
   -7.7968    9.4645    0.0000 C   0  0
   -6.7576    7.6647    0.0000 C   0  0
   -3.8915    7.2028    0.0000 Cl  0  0
   -1.2964    1.4973    0.0000 C   0  0
   -2.6111    0.7486    0.0000 C   0  0
   -2.6111   -0.7486    0.0000 C   0  0
   -1.2964   -1.4973    0.0000 C   0  0
    0.0000   -0.7486    0.0000 C   0  0
    1.2964   -1.4973    0.0000 C   0  0
    2.5929   -0.7486    0.0000 C   0  0
    2.5929    0.7486    0.0000 C   0  0
    1.2964    1.4973    0.0000 C   0  0
    0.0000    0.7486    0.0000 C   0  0
    0.2433    2.0726    0.0000 C   0  0
    2.3495    2.0727    0.0000 C   0  0
   -3.9091   -1.5019    0.0000 O   0  0
   -3.9072   -2.7019    0.0000 C   0  0
    3.6321    1.3486    0.0000 N   0  0
  2  1  2  0
  3  2  2  0
  4  5  1  0
  5  6  2  0
  6  7  1  0
  7  8  2  0
  8  9  1  0
  4  9  2  0
  4 10  1  0
  6 11  1  0
 12 13  1  0
 13 14  2  0
 14 15  1  0
 15 16  2  0
 16 17  1  0
 12 17  2  0
 18 19  1  0
 18 20  1  0
  2 18  1  0
 13  2  1  0
 11 12  1  0
  7 21  1  0
 22 23  1  0
 23 24  2  0
 24 25  1  0
 25 26  2  0
 26 27  1  0
 27 28  1  0
 28 29  1  0
 29 30  1  0
 30 31  1  0
 22 31  2  0
 26 31  1  0
 30 32  1  0
 30 33  1  0
 34 35  1  0
 24 34  1  0
 29 36  1  0
 10 23  1  0
M  END
> <From>
www.bindingDB.org

> <BindingDB Reactant_set_id>
50484653

> <Ligand InChI>
InChI=1S/C26H32ClN5O3S/c1-15(2)36(33,34)22-9-7-6-8-19(22)30-24-18(27)14-29-25(32-24)31-20-13-17-16(12-21(20)35-5)10-11-23(28)26(17,3)4/h6-9,12-15,23H,10-11,28H2,1-5H3,(H2,29,30,31,32)

> <Ligand InChI Key>
VVTGYZYHWDWRMP-UHFFFAOYSA-N

> <BindingDB MonomerID>
50157533

> <BindingDB Ligand Name>
CHEMBL3786431

> <Target Name Assigned by Curator or DataSource>
ALK tyrosine kinase receptor

> <Target Source Organism According to Curator or DataSource>
Homo sapiens

> <Ki (nM)>


> <IC50 (nM)>
 94

> <Kd (nM)>


> <EC50 (nM)>


> <kon (M-1-s-1)>


> <koff (s-1)>


> <pH>


> <Temp C>


> <Curation/DataSource>
ChEMBL

> <Article DOI>
10.1016/j.bmcl.2016.02.052

> <PMID>
26923695

> <PubChem AID>


> <Patent Number>


> <Authors>
Song, D; Lee, M; Park, CH; Ahn, S; Yun, CS; Lee, CO; Kim, HR; Hwang, JY

> <Institution>
Chungbuk National University

> <Link to Ligand in BindingDB>
http://www.bindingdb.org/bind/chemsearch/marvin/MolStructure.jsp?monomerid=50157533

> <Link to Ligand-Target Pair in BindingDB>
http://www.bindingdb.org/jsp/dbsearch/PrimarySearch_ki.jsp?energyterm=kJ/mole&tag=pol&polymerid=5809&target=ALK+tyrosine+kinase+receptor&column=ki&startPg=0&Increment=50&submit=Search

> <Link to Ligand-Target Pair in BindingDB>
http://www.bindingdb.org/jsp/dbsearch/PrimarySearch_ki.jsp?energyterm=kJ/mole&tag=r21&monomerid=50157533&enzyme=ALK+tyrosine+kinase+receptor&column=ki&startPg=0&Increment=50&submit=Search

> <Ligand HET ID in PDB>


> <PDB ID(s) for Ligand-Target Complex>


> <PubChem CID>
127031324

> <PubChem SID>
340134050

> <ChEBI ID of Ligand>


> <ChEMBL ID of Ligand>
CHEMBL3786431

> <DrugBank ID of Ligand>


> <IUPHAR_GRAC ID of Ligand>


> <KEGG ID of Ligand>


> <ZINC ID of Ligand>


> <Number of Protein Chains in Target (>1 implies a multichain complex)>
1

> <BindingDB Target Chain Sequence>
MGAIGLLWLLPLLLSTAAVGSGMGTGQRAGSPAAGPPLQPREPLSYSRLQRKSLAVDFVVPSLFRVYARDLLLPPSSSELKAGRPEARGSLALDCAPLLRLLGPAPGVSWTAGSPAPAEARTLSRVLKGGSVRKLRRAKQLVLELGEEAILEGCVGPPGEAAVGLLQFNLSELFSWWIRQGEGRLRIRLMPEKKASEVGREGRLSAAIRASQPRLLFQIFGTGHSSLESPTNMPSPSPDYFTWNLTWIMKDSFPFLSHRSRYGLECSFDFPCELEYSPPLHDLRNQSWSWRRIPSEEASQMDLLDGPGAERSKEMPRGSFLLLNTSADSKHTILSPWMRSSSEHCTLAVSVHRHLQPSGRYIAQLLPHNEAAREILLMPTPGKHGWTVLQGRIGRPDNPFRVALEYISSGNRSLSAVDFFALKNCSEGTSPGSKMALQSSFTCWNGTVLQLGQACDFHQDCAQGEDESQMCRKLPVGFYCNFEDGFCGWTQGTLSPHTPQWQVRTLKDARFQDHQDHALLLSTTDVPASESATVTSATFPAPIKSSPCELRMSWLIRGVLRGNVSLVLVENKTGKEQGRMVWHVAAYEGLSLWQWMVLPLLDVSDRFWLQMVAWWGQGSRAIVAFDNISISLDCYLTISGEDKILQNTAPKSRNLFERNPNKELKPGENSPRQTPIFDPTVHWLFTTCGASGPHGPTQAQCNNAYQNSNLSVEVGSEGPLKGIQIWKVPATDTYSISGYGAAGGKGGKNTMMRSHGVSVLGIFNLEKDDMLYILVGQQGEDACPSTNQLIQKVCIGENNVIEEEIRVNRSVHEWAGGGGGGGGATYVFKMKDGVPVPLIIAAGGGGRAYGAKTDTFHPERLENNSSVLGLNGNSGAAGGGGGWNDNTSLLWAGKSLQEGATGGHSCPQAMKKWGWETRGGFGGGGGGCSSGGGGGGYIGGNAASNNDPEMDGEDGVSFISPLGILYTPALKVMEGHGEVNIKHYLNCSHCEVDECHMDPESHKVICFCDHGTVLAEDGVSCIVSPTPEPHLPLSLILSVVTSALVAALVLAFSGIMIVYRRKHQELQAMQMELQSPEYKLSKLRTSTIMTDYNPNYCFAGKTSSISDLKEVPRKNITLIRGLGHGAFGEVYEGQVSGMPNDPSPLQVAVKTLPEVCSEQDELDFLMEALIISKFNHQNIVRCIGVSLQSLPRFILLELMAGGDLKSFLRETRPRPSQPSSLAMLDLLHVARDIACGCQYLEENHFIHRDIAARNCLLTCPGPGRVAKIGDFGMARDIYRASYYRKGGCAMLPVKWMPPEAFMEGIFTSKTDTWSFGVLLWEIFSLGYMPYPSKSNQEVLEFVTSGGRMDPPKNCPGPVYRIMTQCWQHQPEDRPNFAIILERIEYCTQDPDVINTALPIEYGPLVEEEEKVPVRPKDPEGVPPLLVSQQAKREEERSPAAPPPLPTTSSGKAAKKPTAAEISVRVPRGPAVEGGHVNMAFSQSNPPSELHKVHGSRNKPTSLWNPTYGSWFTEKPTKKNNPIAKKEPHDRGNLGLEGSCTVPPNVATGRLPGASLLLEPSSLTANMKEVPLFRLRHFPCGNVNYGYQQQGLPLEAATAPGAGHYEDTILKSKNSMNQPGP

> <PDB ID(s) of Target Chain>
2XB7,2XBA,3AOX,5FTO,5FTQ,6E0R,6EBW,6EDL,6MX8

> <UniProt (SwissProt) Recommended Name of Target Chain>
ALK tyrosine kinase receptor

> <UniProt (SwissProt) Entry Name of Target Chain>
ALK_HUMAN

> <UniProt (SwissProt) Primary ID of Target Chain>
Q9UM73

> <UniProt (SwissProt) Secondary ID(s) of Target Chain>
Q4ZFX9,Q53QQ6,Q53RZ4,Q59FI3,Q9Y4K6

> <UniProt (SwissProt) Alternative ID(s) of Target Chain>


> <UniProt (TrEMBL) Submitted Name of Target Chain>


> <UniProt (TrEMBL) Entry Name of Target Chain>


> <UniProt (TrEMBL) Primary ID of Target Chain>


> <UniProt (TrEMBL) Secondary ID(s) of Target Chain>


> <UniProt (TrEMBL) Alternative ID(s) of Target Chain>


$$$$

  SciTegic12191611462D

 40 43  0  0  0  0            999 V2000
   10.1188   -8.1120    0.0000 O   0  0
    9.0794   -7.5124    0.0000 S   0  0
    9.0800   -8.7124    0.0000 O   0  0
   -5.2109    0.7445    0.0000 C   0  0
   -6.5121    1.4924    0.0000 C   0  0
   -5.2090   -0.4555    0.0000 O   0  0
   -3.9122    1.4966    0.0000 N   0  0
   -7.5506    0.8910    0.0000 O   0  0
   -1.2964    1.4973    0.0000 C   0  0
   -2.6111    0.7486    0.0000 C   0  0
   -2.6111   -0.7486    0.0000 C   0  0
   -1.2964   -1.4973    0.0000 C   0  0
    0.0000   -0.7486    0.0000 C   0  0
    1.2964   -1.4973    0.0000 C   0  0
    2.5929   -0.7486    0.0000 C   0  0
    2.5929    0.7486    0.0000 C   0  0
    1.2964    1.4973    0.0000 C   0  0
    0.0000    0.7486    0.0000 C   0  0
   -0.2414    2.0691    0.0000 C   0  0
   -2.3479    2.0756    0.0000 C   0  0
    3.8911    1.5017    0.0000 O   0  0
    3.8894    2.7017    0.0000 C   0  0
    3.8911   -1.5017    0.0000 N   0  0
    3.8890   -3.0026    0.0000 C   0  0
    5.1854   -3.7571    0.0000 N   0  0
    5.1802   -5.2571    0.0000 C   0  0
    3.8786   -6.0026    0.0000 C   0  0
    2.5821   -5.2482    0.0000 C   0  0
    2.5873   -3.7482    0.0000 N   0  0
    6.4789   -6.0094    0.0000 N   0  0
    7.7802   -5.2616    0.0000 C   0  0
    9.0793   -6.0115    0.0000 C   0  0
   10.3783   -5.2615    0.0000 C   0  0
   10.3783   -3.7615    0.0000 C   0  0
    9.0793   -3.0115    0.0000 C   0  0
    7.7803   -3.7615    0.0000 C   0  0
    7.7801   -8.2636    0.0000 C   0  0
    7.7802   -9.4636    0.0000 C   0  0
    6.7407   -7.6640    0.0000 C   0  0
    3.8744   -7.2026    0.0000 Cl  0  0
  2  1  2  0
  3  2  2  0
  4  5  1  0
  4  6  2  0
  4  7  1  0
  5  8  1  0
  9 10  1  0
 10 11  1  0
 11 12  1  0
 12 13  1  0
 13 14  1  0
 14 15  2  0
 15 16  1  0
 16 17  2  0
 17 18  1  0
  9 18  1  0
 13 18  2  0
  9 19  1  0
  9 20  1  0
 21 22  1  0
 16 21  1  0
 24 25  1  0
 25 26  2  0
 26 27  1  0
 27 28  2  0
 28 29  1  0
 24 29  2  0
 31 32  1  0
 32 33  2  0
 33 34  1  0
 34 35  2  0
 35 36  1  0
 31 36  2  0
 37 38  1  0
 37 39  1  0
  2 37  1  0
 32  2  1  0
 30 31  1  0
 26 30  1  0
 27 40  1  0
 23 24  1  0
 15 23  1  0
  7 10  1  0
M  END
> <From>
www.bindingDB.org

> <BindingDB Reactant_set_id>
50484655

> <Ligand InChI>
InChI=1S/C28H34ClN5O5S/c1-16(2)40(37,38)23-9-7-6-8-20(23)31-26-19(29)14-30-27(34-26)32-21-12-17-10-11-24(33-25(36)15-35)28(3,4)18(17)13-22(21)39-5/h6-9,12-14,16,24,35H,10-11,15H2,1-5H3,(H,33,36)(H2,30,31,32,34)

> <Ligand InChI Key>
MDXFROBQUMMBCD-UHFFFAOYSA-N

> <BindingDB MonomerID>
50157534

> <BindingDB Ligand Name>
CHEMBL3786402

> <Target Name Assigned by Curator or DataSource>
ALK tyrosine kinase receptor

> <Target Source Organism According to Curator or DataSource>
Homo sapiens

> <Ki (nM)>


> <IC50 (nM)>
 9.9

> <Kd (nM)>


> <EC50 (nM)>


> <kon (M-1-s-1)>


> <koff (s-1)>


> <pH>


> <Temp C>


> <Curation/DataSource>
ChEMBL

> <Article DOI>
10.1016/j.bmcl.2016.02.052

> <PMID>
26923695

> <PubChem AID>


> <Patent Number>


> <Authors>
Song, D; Lee, M; Park, CH; Ahn, S; Yun, CS; Lee, CO; Kim, HR; Hwang, JY

> <Institution>
Chungbuk National University

> <Link to Ligand in BindingDB>
http://www.bindingdb.org/bind/chemsearch/marvin/MolStructure.jsp?monomerid=50157534

> <Link to Ligand-Target Pair in BindingDB>
http://www.bindingdb.org/jsp/dbsearch/PrimarySearch_ki.jsp?energyterm=kJ/mole&tag=pol&polymerid=5809&target=ALK+tyrosine+kinase+receptor&column=ki&startPg=0&Increment=50&submit=Search

> <Link to Ligand-Target Pair in BindingDB>
http://www.bindingdb.org/jsp/dbsearch/PrimarySearch_ki.jsp?energyterm=kJ/mole&tag=r21&monomerid=50157534&enzyme=ALK+tyrosine+kinase+receptor&column=ki&startPg=0&Increment=50&submit=Search

> <Ligand HET ID in PDB>


> <PDB ID(s) for Ligand-Target Complex>


> <PubChem CID>
127032123

> <PubChem SID>
340134051

> <ChEBI ID of Ligand>


> <ChEMBL ID of Ligand>
CHEMBL3786402

> <DrugBank ID of Ligand>


> <IUPHAR_GRAC ID of Ligand>


> <KEGG ID of Ligand>


> <ZINC ID of Ligand>


> <Number of Protein Chains in Target (>1 implies a multichain complex)>
1

> <BindingDB Target Chain Sequence>
MGAIGLLWLLPLLLSTAAVGSGMGTGQRAGSPAAGPPLQPREPLSYSRLQRKSLAVDFVVPSLFRVYARDLLLPPSSSELKAGRPEARGSLALDCAPLLRLLGPAPGVSWTAGSPAPAEARTLSRVLKGGSVRKLRRAKQLVLELGEEAILEGCVGPPGEAAVGLLQFNLSELFSWWIRQGEGRLRIRLMPEKKASEVGREGRLSAAIRASQPRLLFQIFGTGHSSLESPTNMPSPSPDYFTWNLTWIMKDSFPFLSHRSRYGLECSFDFPCELEYSPPLHDLRNQSWSWRRIPSEEASQMDLLDGPGAERSKEMPRGSFLLLNTSADSKHTILSPWMRSSSEHCTLAVSVHRHLQPSGRYIAQLLPHNEAAREILLMPTPGKHGWTVLQGRIGRPDNPFRVALEYISSGNRSLSAVDFFALKNCSEGTSPGSKMALQSSFTCWNGTVLQLGQACDFHQDCAQGEDESQMCRKLPVGFYCNFEDGFCGWTQGTLSPHTPQWQVRTLKDARFQDHQDHALLLSTTDVPASESATVTSATFPAPIKSSPCELRMSWLIRGVLRGNVSLVLVENKTGKEQGRMVWHVAAYEGLSLWQWMVLPLLDVSDRFWLQMVAWWGQGSRAIVAFDNISISLDCYLTISGEDKILQNTAPKSRNLFERNPNKELKPGENSPRQTPIFDPTVHWLFTTCGASGPHGPTQAQCNNAYQNSNLSVEVGSEGPLKGIQIWKVPATDTYSISGYGAAGGKGGKNTMMRSHGVSVLGIFNLEKDDMLYILVGQQGEDACPSTNQLIQKVCIGENNVIEEEIRVNRSVHEWAGGGGGGGGATYVFKMKDGVPVPLIIAAGGGGRAYGAKTDTFHPERLENNSSVLGLNGNSGAAGGGGGWNDNTSLLWAGKSLQEGATGGHSCPQAMKKWGWETRGGFGGGGGGCSSGGGGGGYIGGNAASNNDPEMDGEDGVSFISPLGILYTPALKVMEGHGEVNIKHYLNCSHCEVDECHMDPESHKVICFCDHGTVLAEDGVSCIVSPTPEPHLPLSLILSVVTSALVAALVLAFSGIMIVYRRKHQELQAMQMELQSPEYKLSKLRTSTIMTDYNPNYCFAGKTSSISDLKEVPRKNITLIRGLGHGAFGEVYEGQVSGMPNDPSPLQVAVKTLPEVCSEQDELDFLMEALIISKFNHQNIVRCIGVSLQSLPRFILLELMAGGDLKSFLRETRPRPSQPSSLAMLDLLHVARDIACGCQYLEENHFIHRDIAARNCLLTCPGPGRVAKIGDFGMARDIYRASYYRKGGCAMLPVKWMPPEAFMEGIFTSKTDTWSFGVLLWEIFSLGYMPYPSKSNQEVLEFVTSGGRMDPPKNCPGPVYRIMTQCWQHQPEDRPNFAIILERIEYCTQDPDVINTALPIEYGPLVEEEEKVPVRPKDPEGVPPLLVSQQAKREEERSPAAPPPLPTTSSGKAAKKPTAAEISVRVPRGPAVEGGHVNMAFSQSNPPSELHKVHGSRNKPTSLWNPTYGSWFTEKPTKKNNPIAKKEPHDRGNLGLEGSCTVPPNVATGRLPGASLLLEPSSLTANMKEVPLFRLRHFPCGNVNYGYQQQGLPLEAATAPGAGHYEDTILKSKNSMNQPGP

> <PDB ID(s) of Target Chain>
2XB7,2XBA,3AOX,5FTO,5FTQ,6E0R,6EBW,6EDL,6MX8

> <UniProt (SwissProt) Recommended Name of Target Chain>
ALK tyrosine kinase receptor

> <UniProt (SwissProt) Entry Name of Target Chain>
ALK_HUMAN

> <UniProt (SwissProt) Primary ID of Target Chain>
Q9UM73

> <UniProt (SwissProt) Secondary ID(s) of Target Chain>
Q4ZFX9,Q53QQ6,Q53RZ4,Q59FI3,Q9Y4K6

> <UniProt (SwissProt) Alternative ID(s) of Target Chain>


> <UniProt (TrEMBL) Submitted Name of Target Chain>


> <UniProt (TrEMBL) Entry Name of Target Chain>


> <UniProt (TrEMBL) Primary ID of Target Chain>


> <UniProt (TrEMBL) Secondary ID(s) of Target Chain>


> <UniProt (TrEMBL) Alternative ID(s) of Target Chain>


$$$$

  SciTegic12191611462D

 42 45  0  0  0  0            999 V2000
   10.1188   -8.1120    0.0000 O   0  0
    9.0794   -7.5124    0.0000 S   0  0
    9.0800   -8.7124    0.0000 O   0  0
   -5.2109    0.7445    0.0000 C   0  0
   -6.5121    1.4924    0.0000 C   0  0
   -5.2090   -0.4555    0.0000 O   0  0
   -3.9122    1.4966    0.0000 N   0  0
   -7.8109    0.7403    0.0000 N   0  0
   -8.8513    1.3383    0.0000 C   0  0
   -7.8090   -0.4597    0.0000 C   0  0
   -1.2964    1.4973    0.0000 C   0  0
   -2.6111    0.7486    0.0000 C   0  0
   -2.6111   -0.7486    0.0000 C   0  0
   -1.2964   -1.4973    0.0000 C   0  0
    0.0000   -0.7486    0.0000 C   0  0
    1.2964   -1.4973    0.0000 C   0  0
    2.5929   -0.7486    0.0000 C   0  0
    2.5929    0.7486    0.0000 C   0  0
    1.2964    1.4973    0.0000 C   0  0
    0.0000    0.7486    0.0000 C   0  0
   -0.2414    2.0691    0.0000 C   0  0
   -2.3479    2.0756    0.0000 C   0  0
    3.8911    1.5017    0.0000 O   0  0
    3.8894    2.7017    0.0000 C   0  0
    3.8911   -1.5017    0.0000 N   0  0
    3.8890   -3.0026    0.0000 C   0  0
    5.1854   -3.7571    0.0000 N   0  0
    5.1802   -5.2571    0.0000 C   0  0
    3.8786   -6.0026    0.0000 C   0  0
    2.5821   -5.2482    0.0000 C   0  0
    2.5873   -3.7482    0.0000 N   0  0
    6.4789   -6.0094    0.0000 N   0  0
    7.7802   -5.2616    0.0000 C   0  0
    9.0793   -6.0115    0.0000 C   0  0
   10.3783   -5.2615    0.0000 C   0  0
   10.3783   -3.7615    0.0000 C   0  0
    9.0793   -3.0115    0.0000 C   0  0
    7.7803   -3.7615    0.0000 C   0  0
    7.7801   -8.2636    0.0000 C   0  0
    7.7802   -9.4636    0.0000 C   0  0
    6.7407   -7.6640    0.0000 C   0  0
    3.8744   -7.2026    0.0000 Cl  0  0
  2  1  2  0
  3  2  2  0
  4  5  1  0
  4  6  2  0
  4  7  1  0
  8  9  1  0
  8 10  1  0
  5  8  1  0
 11 12  1  0
 12 13  1  0
 13 14  1  0
 14 15  1  0
 15 16  1  0
 16 17  2  0
 17 18  1  0
 18 19  2  0
 19 20  1  0
 11 20  1  0
 15 20  2  0
 11 21  1  0
 11 22  1  0
 23 24  1  0
 18 23  1  0
 26 27  1  0
 27 28  2  0
 28 29  1  0
 29 30  2  0
 30 31  1  0
 26 31  2  0
 33 34  1  0
 34 35  2  0
 35 36  1  0
 36 37  2  0
 37 38  1  0
 33 38  2  0
 39 40  1  0
 39 41  1  0
  2 39  1  0
 34  2  1  0
 32 33  1  0
 28 32  1  0
 29 42  1  0
 25 26  1  0
 17 25  1  0
  7 12  1  0
M  END
> <From>
www.bindingDB.org

> <BindingDB Reactant_set_id>
50484544

> <Ligand InChI>
InChI=1S/C30H39ClN6O4S/c1-18(2)42(39,40)25-11-9-8-10-22(25)33-28-21(31)16-32-29(36-28)34-23-14-19-12-13-26(35-27(38)17-37(5)6)30(3,4)20(19)15-24(23)41-7/h8-11,14-16,18,26H,12-13,17H2,1-7H3,(H,35,38)(H2,32,33,34,36)

> <Ligand InChI Key>
PAPRNXKXHZHNHV-UHFFFAOYSA-N

> <BindingDB MonomerID>
50157538

> <BindingDB Ligand Name>
CHEMBL3785299

> <Target Name Assigned by Curator or DataSource>
ALK tyrosine kinase receptor

> <Target Source Organism According to Curator or DataSource>
Homo sapiens

> <Ki (nM)>


> <IC50 (nM)>
 4.2

> <Kd (nM)>


> <EC50 (nM)>


> <kon (M-1-s-1)>


> <koff (s-1)>


> <pH>


> <Temp C>


> <Curation/DataSource>
ChEMBL

> <Article DOI>
10.1016/j.bmcl.2016.02.052

> <PMID>
26923695

> <PubChem AID>


> <Patent Number>


> <Authors>
Song, D; Lee, M; Park, CH; Ahn, S; Yun, CS; Lee, CO; Kim, HR; Hwang, JY

> <Institution>
Chungbuk National University

> <Link to Ligand in BindingDB>
http://www.bindingdb.org/bind/chemsearch/marvin/MolStructure.jsp?monomerid=50157538

> <Link to Ligand-Target Pair in BindingDB>
http://www.bindingdb.org/jsp/dbsearch/PrimarySearch_ki.jsp?energyterm=kJ/mole&tag=pol&polymerid=5809&target=ALK+tyrosine+kinase+receptor&column=ki&startPg=0&Increment=50&submit=Search

> <Link to Ligand-Target Pair in BindingDB>
http://www.bindingdb.org/jsp/dbsearch/PrimarySearch_ki.jsp?energyterm=kJ/mole&tag=r21&monomerid=50157538&enzyme=ALK+tyrosine+kinase+receptor&column=ki&startPg=0&Increment=50&submit=Search

> <Ligand HET ID in PDB>


> <PDB ID(s) for Ligand-Target Complex>


> <PubChem CID>
127032124

> <PubChem SID>
340134055

> <ChEBI ID of Ligand>


> <ChEMBL ID of Ligand>
CHEMBL3785299

> <DrugBank ID of Ligand>


> <IUPHAR_GRAC ID of Ligand>


> <KEGG ID of Ligand>


> <ZINC ID of Ligand>


> <Number of Protein Chains in Target (>1 implies a multichain complex)>
1

> <BindingDB Target Chain Sequence>
MGAIGLLWLLPLLLSTAAVGSGMGTGQRAGSPAAGPPLQPREPLSYSRLQRKSLAVDFVVPSLFRVYARDLLLPPSSSELKAGRPEARGSLALDCAPLLRLLGPAPGVSWTAGSPAPAEARTLSRVLKGGSVRKLRRAKQLVLELGEEAILEGCVGPPGEAAVGLLQFNLSELFSWWIRQGEGRLRIRLMPEKKASEVGREGRLSAAIRASQPRLLFQIFGTGHSSLESPTNMPSPSPDYFTWNLTWIMKDSFPFLSHRSRYGLECSFDFPCELEYSPPLHDLRNQSWSWRRIPSEEASQMDLLDGPGAERSKEMPRGSFLLLNTSADSKHTILSPWMRSSSEHCTLAVSVHRHLQPSGRYIAQLLPHNEAAREILLMPTPGKHGWTVLQGRIGRPDNPFRVALEYISSGNRSLSAVDFFALKNCSEGTSPGSKMALQSSFTCWNGTVLQLGQACDFHQDCAQGEDESQMCRKLPVGFYCNFEDGFCGWTQGTLSPHTPQWQVRTLKDARFQDHQDHALLLSTTDVPASESATVTSATFPAPIKSSPCELRMSWLIRGVLRGNVSLVLVENKTGKEQGRMVWHVAAYEGLSLWQWMVLPLLDVSDRFWLQMVAWWGQGSRAIVAFDNISISLDCYLTISGEDKILQNTAPKSRNLFERNPNKELKPGENSPRQTPIFDPTVHWLFTTCGASGPHGPTQAQCNNAYQNSNLSVEVGSEGPLKGIQIWKVPATDTYSISGYGAAGGKGGKNTMMRSHGVSVLGIFNLEKDDMLYILVGQQGEDACPSTNQLIQKVCIGENNVIEEEIRVNRSVHEWAGGGGGGGGATYVFKMKDGVPVPLIIAAGGGGRAYGAKTDTFHPERLENNSSVLGLNGNSGAAGGGGGWNDNTSLLWAGKSLQEGATGGHSCPQAMKKWGWETRGGFGGGGGGCSSGGGGGGYIGGNAASNNDPEMDGEDGVSFISPLGILYTPALKVMEGHGEVNIKHYLNCSHCEVDECHMDPESHKVICFCDHGTVLAEDGVSCIVSPTPEPHLPLSLILSVVTSALVAALVLAFSGIMIVYRRKHQELQAMQMELQSPEYKLSKLRTSTIMTDYNPNYCFAGKTSSISDLKEVPRKNITLIRGLGHGAFGEVYEGQVSGMPNDPSPLQVAVKTLPEVCSEQDELDFLMEALIISKFNHQNIVRCIGVSLQSLPRFILLELMAGGDLKSFLRETRPRPSQPSSLAMLDLLHVARDIACGCQYLEENHFIHRDIAARNCLLTCPGPGRVAKIGDFGMARDIYRASYYRKGGCAMLPVKWMPPEAFMEGIFTSKTDTWSFGVLLWEIFSLGYMPYPSKSNQEVLEFVTSGGRMDPPKNCPGPVYRIMTQCWQHQPEDRPNFAIILERIEYCTQDPDVINTALPIEYGPLVEEEEKVPVRPKDPEGVPPLLVSQQAKREEERSPAAPPPLPTTSSGKAAKKPTAAEISVRVPRGPAVEGGHVNMAFSQSNPPSELHKVHGSRNKPTSLWNPTYGSWFTEKPTKKNNPIAKKEPHDRGNLGLEGSCTVPPNVATGRLPGASLLLEPSSLTANMKEVPLFRLRHFPCGNVNYGYQQQGLPLEAATAPGAGHYEDTILKSKNSMNQPGP

> <PDB ID(s) of Target Chain>
2XB7,2XBA,3AOX,5FTO,5FTQ,6E0R,6EBW,6EDL,6MX8

> <UniProt (SwissProt) Recommended Name of Target Chain>
ALK tyrosine kinase receptor

> <UniProt (SwissProt) Entry Name of Target Chain>
ALK_HUMAN

> <UniProt (SwissProt) Primary ID of Target Chain>
Q9UM73

> <UniProt (SwissProt) Secondary ID(s) of Target Chain>
Q4ZFX9,Q53QQ6,Q53RZ4,Q59FI3,Q9Y4K6

> <UniProt (SwissProt) Alternative ID(s) of Target Chain>


> <UniProt (TrEMBL) Submitted Name of Target Chain>


> <UniProt (TrEMBL) Entry Name of Target Chain>


> <UniProt (TrEMBL) Primary ID of Target Chain>


> <UniProt (TrEMBL) Secondary ID(s) of Target Chain>


> <UniProt (TrEMBL) Alternative ID(s) of Target Chain>


$$$$

  SciTegic10081512262D

 40 44  0  0  0  0            999 V2000
    5.3036    2.7696    0.0000 C   0  0
    4.5891    2.3571    0.0000 C   0  0
    4.5891    1.5321    0.0000 C   0  0
    5.3036    1.1196    0.0000 C   0  0
    6.0181    1.5321    0.0000 C   0  0
    6.0181    2.3571    0.0000 C   0  0
    6.7325    1.1196    0.0000 P   0  0
    5.3036    0.2946    0.0000 N   0  0
    4.5891   -0.1179    0.0000 C   0  0
    6.7325    0.2946    0.0000 C   0  0
    7.4470    1.5321    0.0000 O   0  0
    7.5294    0.9061    0.0000 C   0  0
    3.8746    0.2946    0.0000 N   0  0
    3.1601   -0.1179    0.0000 C   0  0
    3.1601   -0.9429    0.0000 N   0  0
    3.8746   -1.3554    0.0000 C   0  0
    4.5891   -0.9429    0.0000 C   0  0
    5.3036   -1.3554    0.0000 Cl  0  0
    2.4457    0.2946    0.0000 N   0  0
    1.7312   -0.1179    0.0000 C   0  0
    1.0167    0.2947    0.0000 C   0  0
    0.3022   -0.1178    0.0000 C   0  0
    0.3023   -0.9429    0.0000 C   0  0
    1.0167   -1.3554    0.0000 C   0  0
    1.7312   -0.9429    0.0000 C   0  0
   -0.4122   -1.3554    0.0000 N   0  0
   -1.1267   -0.9429    0.0000 C   0  0
   -1.8412   -1.3554    0.0000 C   0  0
   -1.8412   -2.1804    0.0000 C   0  0
   -1.1267   -2.5929    0.0000 C   0  0
   -0.4122   -2.1804    0.0000 C   0  0
   -2.5557   -2.5929    0.0000 N   0  0
   -3.2701   -2.1804    0.0000 C   0  0
   -3.9846   -2.5929    0.0000 C   0  0
   -3.9846   -3.4179    0.0000 N   0  0
   -3.2702   -3.8304    0.0000 C   0  0
   -2.5557   -3.4179    0.0000 C   0  0
   -4.6991   -3.8304    0.0000 C   0  0
    2.4457   -1.3554    0.0000 O   0  0
    2.4457   -2.1804    0.0000 C   0  0
  1  2  1  0
  1  6  2  0
  2  3  2  0
  3  4  1  0
  4  5  2  0
  5  6  1  0
  5  7  1  0
  4  8  1  0
  8  9  1  0
  7 10  1  0
  7 11  2  0
  7 12  1  0
  9 13  2  0
 17  9  1  0
 13 14  1  0
 14 15  2  0
 15 16  1  0
 16 17  2  0
 17 18  1  0
 14 19  1  0
 19 20  1  0
 20 21  1  0
 20 25  2  0
 21 22  2  0
 22 23  1  0
 23 24  2  0
 24 25  1  0
 23 26  1  0
 26 27  1  0
 31 26  1  0
 27 28  1  0
 28 29  1  0
 29 30  1  0
 30 31  1  0
 29 32  1  0
 32 33  1  0
 37 32  1  0
 33 34  1  0
 34 35  1  0
 35 36  1  0
 36 37  1  0
 35 38  1  0
 25 39  1  0
 39 40  1  0
M  END
> <From>
www.bindingDB.org

> <BindingDB Reactant_set_id>
50506544

> <Ligand InChI>
InChI=1S/C29H39ClN7O2P/c1-35-15-17-37(18-16-35)21-11-13-36(14-12-21)22-9-10-24(26(19-22)39-2)33-29-31-20-23(30)28(34-29)32-25-7-5-6-8-27(25)40(3,4)38/h5-10,19-21H,11-18H2,1-4H3,(H2,31,32,33,34)

> <Ligand InChI Key>
AILRADAXUVEEIR-UHFFFAOYSA-N

> <BindingDB MonomerID>
50185140

> <BindingDB Ligand Name>
AP-26113::BRIGATINIB::Brigatinib

> <Target Name Assigned by Curator or DataSource>
ALK tyrosine kinase receptor

> <Target Source Organism According to Curator or DataSource>
Homo sapiens

> <Ki (nM)>


> <IC50 (nM)>
 0.370000

> <Kd (nM)>


> <EC50 (nM)>


> <kon (M-1-s-1)>


> <koff (s-1)>


> <pH>


> <Temp C>


> <Curation/DataSource>
ChEMBL

> <Article DOI>
10.1021/acs.jmedchem.6b00306

> <PMID>
27144831

> <PubChem AID>


> <Patent Number>


> <Authors>
Huang, WS; Liu, S; Zou, D; Thomas, M; Wang, Y; Zhou, T; Romero, J; Kohlmann, A; Li, F; Qi, J; Cai, L; Dwight, TA; Xu, Y; Xu, R; Dodd, R; Toms, A; Parillon, L; Lu, X; Anjum, R; Zhang, S; Wang, F; Keats, J; Wardwell, SD; Ning, Y; Xu, Q; Moran, LE; Mohemmad, QK; Jang, HG; Clackson, T; Narasimhan, NI; Rivera, VM; Zhu, X; Dalgarno, D; Shakespeare, WC

> <Institution>
ARIAD Pharmaceuticals, Inc.

> <Link to Ligand in BindingDB>
http://www.bindingdb.org/bind/chemsearch/marvin/MolStructure.jsp?monomerid=50185140

> <Link to Ligand-Target Pair in BindingDB>
http://www.bindingdb.org/jsp/dbsearch/PrimarySearch_ki.jsp?energyterm=kJ/mole&tag=pol&polymerid=5809&target=ALK+tyrosine+kinase+receptor&column=ki&startPg=0&Increment=50&submit=Search

> <Link to Ligand-Target Pair in BindingDB>
http://www.bindingdb.org/jsp/dbsearch/PrimarySearch_ki.jsp?energyterm=kJ/mole&tag=r21&monomerid=50185140&enzyme=ALK+tyrosine+kinase+receptor&column=ki&startPg=0&Increment=50&submit=Search

> <Ligand HET ID in PDB>
6GY

> <PDB ID(s) for Ligand-Target Complex>
5J7H

> <PubChem CID>
68165256

> <PubChem SID>
346550515

> <ChEBI ID of Ligand>


> <ChEMBL ID of Ligand>


> <DrugBank ID of Ligand>


> <IUPHAR_GRAC ID of Ligand>


> <KEGG ID of Ligand>


> <ZINC ID of Ligand>


> <Number of Protein Chains in Target (>1 implies a multichain complex)>
1

> <BindingDB Target Chain Sequence>
MGAIGLLWLLPLLLSTAAVGSGMGTGQRAGSPAAGPPLQPREPLSYSRLQRKSLAVDFVVPSLFRVYARDLLLPPSSSELKAGRPEARGSLALDCAPLLRLLGPAPGVSWTAGSPAPAEARTLSRVLKGGSVRKLRRAKQLVLELGEEAILEGCVGPPGEAAVGLLQFNLSELFSWWIRQGEGRLRIRLMPEKKASEVGREGRLSAAIRASQPRLLFQIFGTGHSSLESPTNMPSPSPDYFTWNLTWIMKDSFPFLSHRSRYGLECSFDFPCELEYSPPLHDLRNQSWSWRRIPSEEASQMDLLDGPGAERSKEMPRGSFLLLNTSADSKHTILSPWMRSSSEHCTLAVSVHRHLQPSGRYIAQLLPHNEAAREILLMPTPGKHGWTVLQGRIGRPDNPFRVALEYISSGNRSLSAVDFFALKNCSEGTSPGSKMALQSSFTCWNGTVLQLGQACDFHQDCAQGEDESQMCRKLPVGFYCNFEDGFCGWTQGTLSPHTPQWQVRTLKDARFQDHQDHALLLSTTDVPASESATVTSATFPAPIKSSPCELRMSWLIRGVLRGNVSLVLVENKTGKEQGRMVWHVAAYEGLSLWQWMVLPLLDVSDRFWLQMVAWWGQGSRAIVAFDNISISLDCYLTISGEDKILQNTAPKSRNLFERNPNKELKPGENSPRQTPIFDPTVHWLFTTCGASGPHGPTQAQCNNAYQNSNLSVEVGSEGPLKGIQIWKVPATDTYSISGYGAAGGKGGKNTMMRSHGVSVLGIFNLEKDDMLYILVGQQGEDACPSTNQLIQKVCIGENNVIEEEIRVNRSVHEWAGGGGGGGGATYVFKMKDGVPVPLIIAAGGGGRAYGAKTDTFHPERLENNSSVLGLNGNSGAAGGGGGWNDNTSLLWAGKSLQEGATGGHSCPQAMKKWGWETRGGFGGGGGGCSSGGGGGGYIGGNAASNNDPEMDGEDGVSFISPLGILYTPALKVMEGHGEVNIKHYLNCSHCEVDECHMDPESHKVICFCDHGTVLAEDGVSCIVSPTPEPHLPLSLILSVVTSALVAALVLAFSGIMIVYRRKHQELQAMQMELQSPEYKLSKLRTSTIMTDYNPNYCFAGKTSSISDLKEVPRKNITLIRGLGHGAFGEVYEGQVSGMPNDPSPLQVAVKTLPEVCSEQDELDFLMEALIISKFNHQNIVRCIGVSLQSLPRFILLELMAGGDLKSFLRETRPRPSQPSSLAMLDLLHVARDIACGCQYLEENHFIHRDIAARNCLLTCPGPGRVAKIGDFGMARDIYRASYYRKGGCAMLPVKWMPPEAFMEGIFTSKTDTWSFGVLLWEIFSLGYMPYPSKSNQEVLEFVTSGGRMDPPKNCPGPVYRIMTQCWQHQPEDRPNFAIILERIEYCTQDPDVINTALPIEYGPLVEEEEKVPVRPKDPEGVPPLLVSQQAKREEERSPAAPPPLPTTSSGKAAKKPTAAEISVRVPRGPAVEGGHVNMAFSQSNPPSELHKVHGSRNKPTSLWNPTYGSWFTEKPTKKNNPIAKKEPHDRGNLGLEGSCTVPPNVATGRLPGASLLLEPSSLTANMKEVPLFRLRHFPCGNVNYGYQQQGLPLEAATAPGAGHYEDTILKSKNSMNQPGP

> <PDB ID(s) of Target Chain>
2XB7,2XBA,3AOX,5FTO,5FTQ,6E0R,6EBW,6EDL,6MX8

> <UniProt (SwissProt) Recommended Name of Target Chain>
ALK tyrosine kinase receptor

> <UniProt (SwissProt) Entry Name of Target Chain>
ALK_HUMAN

> <UniProt (SwissProt) Primary ID of Target Chain>
Q9UM73

> <UniProt (SwissProt) Secondary ID(s) of Target Chain>
Q4ZFX9,Q53QQ6,Q53RZ4,Q59FI3,Q9Y4K6

> <UniProt (SwissProt) Alternative ID(s) of Target Chain>


> <UniProt (TrEMBL) Submitted Name of Target Chain>


> <UniProt (TrEMBL) Entry Name of Target Chain>


> <UniProt (TrEMBL) Primary ID of Target Chain>


> <UniProt (TrEMBL) Secondary ID(s) of Target Chain>


> <UniProt (TrEMBL) Alternative ID(s) of Target Chain>


$$$$
BindingDB_50185152_mol_1

Vconf v2.0 Academic SN VC001-00000579
 20 21  0  0  0  0  0  0  0  0999 V2000
   -2.8428    0.0745    0.0000 O   0  0  0  0  0  0  0  0  0  0  0
   -3.5500   -0.3393    0.0000 C   0  0  0  0  0  0  0  0  0  0  0
   -3.3746   -1.1544    0.0000 C   0  0  0  0  0  0  0  0  0  0  0
   -2.5641   -1.2300    0.0000 C   0  0  0  0  0  0  0  0  0  0  0
   -2.2317   -0.4773    0.0000 C   0  0  0  0  0  0  0  0  0  0  0
   -4.3051   -0.0069    0.0000 C   0  0  0  0  0  0  0  0  0  0  0
   -4.9705   -0.4947    0.0000 O   0  0  0  0  0  0  0  0  0  0  0
   -1.4249   -0.3051    0.0000 C   0  0  0  0  0  0  0  0  0  0  0
   -0.8723   -0.9178    0.0000 C   0  0  0  0  0  0  0  0  0  0  0
   -1.0425   -1.7230    0.0000 C   0  0  0  0  0  0  0  0  0  0  0
   -0.3277   -2.1349    0.0000 C   0  0  2  0  0  0  0  0  0  0  0
    0.2850   -1.5824    0.0000 O   0  0  0  0  0  0  0  0  0  0  0
   -0.0513   -0.8291    0.0000 C   0  0  1  0  0  0  0  0  0  0  0
   -1.7959   -2.0593    0.0000 O   0  0  0  0  0  0  0  0  0  0  0
   -0.2408   -2.9554    0.0000 O   0  0  0  0  0  0  0  0  0  0  0
   -0.9079   -3.4408    0.0000 C   0  0  0  0  0  0  0  0  0  0  0
    0.3598   -0.1138    0.0000 C   0  0  0  0  0  0  0  0  0  0  0
    1.1848   -0.1122    0.0000 C   0  0  0  0  0  0  0  0  0  0  0
    1.5987   -0.8258    0.0000 O   0  0  0  0  0  0  0  0  0  0  0
   -0.0541    0.5999    0.0000 O   0  0  0  0  0  0  0  0  0  0  0
  4  5  4  0  0  0  0
  5  1  4  0  0  0  0
  2  6  1  0  0  0  0
 10 11  1  0  0  0  0
 11 12  1  0  0  0  0
 12 13  1  0  0  0  0
 13  9  1  0  0  0  0
  1  2  4  0  0  0  0
 10 14  2  0  0  0  0
  6  7  1  0  0  0  0
 11 15  1  6  0  0  0
  2  3  4  0  0  0  0
 15 16  1  0  0  0  0
  5  8  1  0  0  0  0
 13 17  1  6  0  0  0
  3  4  4  0  0  0  0
 17 18  1  0  0  0  0
  8  9  2  0  0  0  0
 18 19  1  0  0  0  0
  9 10  1  0  0  0  0
 17 20  1  0  0  0  0
M  END
> <From>
www.bindingDB.org

> <BindingDB Reactant_set_id>
50506509

> <Ligand InChI>
InChI=1S/C28H36ClN7O3S/c1-34-14-16-36(17-15-34)20-10-12-35(13-11-20)21-8-9-23(25(18-21)39-2)32-28-30-19-22(29)27(33-28)31-24-6-4-5-7-26(24)40(3,37)38/h4-9,18-20H,10-17H2,1-3H3,(H2,30,31,32,33)

> <Ligand InChI Key>
ZCTVEBRXLFXVIK-UHFFFAOYSA-N

> <BindingDB MonomerID>
50185152

> <BindingDB Ligand Name>
CHEMBL3822475

> <Target Name Assigned by Curator or DataSource>
ALK tyrosine kinase receptor

> <Target Source Organism According to Curator or DataSource>
Homo sapiens

> <Ki (nM)>


> <IC50 (nM)>
 0.590000

> <Kd (nM)>


> <EC50 (nM)>


> <kon (M-1-s-1)>


> <koff (s-1)>


> <pH>


> <Temp C>


> <Curation/DataSource>
ChEMBL

> <Article DOI>
10.1021/acs.jmedchem.6b00306

> <PMID>
27144831

> <PubChem AID>


> <Patent Number>


> <Authors>
Huang, WS; Liu, S; Zou, D; Thomas, M; Wang, Y; Zhou, T; Romero, J; Kohlmann, A; Li, F; Qi, J; Cai, L; Dwight, TA; Xu, Y; Xu, R; Dodd, R; Toms, A; Parillon, L; Lu, X; Anjum, R; Zhang, S; Wang, F; Keats, J; Wardwell, SD; Ning, Y; Xu, Q; Moran, LE; Mohemmad, QK; Jang, HG; Clackson, T; Narasimhan, NI; Rivera, VM; Zhu, X; Dalgarno, D; Shakespeare, WC

> <Institution>
ARIAD Pharmaceuticals, Inc.

> <Link to Ligand in BindingDB>
http://www.bindingdb.org/bind/chemsearch/marvin/MolStructure.jsp?monomerid=50185152

> <Link to Ligand-Target Pair in BindingDB>
http://www.bindingdb.org/jsp/dbsearch/PrimarySearch_ki.jsp?energyterm=kJ/mole&tag=pol&polymerid=5809&target=ALK+tyrosine+kinase+receptor&column=ki&startPg=0&Increment=50&submit=Search

> <Link to Ligand-Target Pair in BindingDB>
http://www.bindingdb.org/jsp/dbsearch/PrimarySearch_ki.jsp?energyterm=kJ/mole&tag=r21&monomerid=50185152&enzyme=ALK+tyrosine+kinase+receptor&column=ki&startPg=0&Increment=50&submit=Search

> <Ligand HET ID in PDB>


> <PDB ID(s) for Ligand-Target Complex>


> <PubChem CID>
127049465

> <PubChem SID>
104069387

> <ChEBI ID of Ligand>


> <ChEMBL ID of Ligand>
CHEMBL3822475

> <DrugBank ID of Ligand>


> <IUPHAR_GRAC ID of Ligand>


> <KEGG ID of Ligand>


> <ZINC ID of Ligand>
ZINC34603867

> <Number of Protein Chains in Target (>1 implies a multichain complex)>
1

> <BindingDB Target Chain Sequence>
MGAIGLLWLLPLLLSTAAVGSGMGTGQRAGSPAAGPPLQPREPLSYSRLQRKSLAVDFVVPSLFRVYARDLLLPPSSSELKAGRPEARGSLALDCAPLLRLLGPAPGVSWTAGSPAPAEARTLSRVLKGGSVRKLRRAKQLVLELGEEAILEGCVGPPGEAAVGLLQFNLSELFSWWIRQGEGRLRIRLMPEKKASEVGREGRLSAAIRASQPRLLFQIFGTGHSSLESPTNMPSPSPDYFTWNLTWIMKDSFPFLSHRSRYGLECSFDFPCELEYSPPLHDLRNQSWSWRRIPSEEASQMDLLDGPGAERSKEMPRGSFLLLNTSADSKHTILSPWMRSSSEHCTLAVSVHRHLQPSGRYIAQLLPHNEAAREILLMPTPGKHGWTVLQGRIGRPDNPFRVALEYISSGNRSLSAVDFFALKNCSEGTSPGSKMALQSSFTCWNGTVLQLGQACDFHQDCAQGEDESQMCRKLPVGFYCNFEDGFCGWTQGTLSPHTPQWQVRTLKDARFQDHQDHALLLSTTDVPASESATVTSATFPAPIKSSPCELRMSWLIRGVLRGNVSLVLVENKTGKEQGRMVWHVAAYEGLSLWQWMVLPLLDVSDRFWLQMVAWWGQGSRAIVAFDNISISLDCYLTISGEDKILQNTAPKSRNLFERNPNKELKPGENSPRQTPIFDPTVHWLFTTCGASGPHGPTQAQCNNAYQNSNLSVEVGSEGPLKGIQIWKVPATDTYSISGYGAAGGKGGKNTMMRSHGVSVLGIFNLEKDDMLYILVGQQGEDACPSTNQLIQKVCIGENNVIEEEIRVNRSVHEWAGGGGGGGGATYVFKMKDGVPVPLIIAAGGGGRAYGAKTDTFHPERLENNSSVLGLNGNSGAAGGGGGWNDNTSLLWAGKSLQEGATGGHSCPQAMKKWGWETRGGFGGGGGGCSSGGGGGGYIGGNAASNNDPEMDGEDGVSFISPLGILYTPALKVMEGHGEVNIKHYLNCSHCEVDECHMDPESHKVICFCDHGTVLAEDGVSCIVSPTPEPHLPLSLILSVVTSALVAALVLAFSGIMIVYRRKHQELQAMQMELQSPEYKLSKLRTSTIMTDYNPNYCFAGKTSSISDLKEVPRKNITLIRGLGHGAFGEVYEGQVSGMPNDPSPLQVAVKTLPEVCSEQDELDFLMEALIISKFNHQNIVRCIGVSLQSLPRFILLELMAGGDLKSFLRETRPRPSQPSSLAMLDLLHVARDIACGCQYLEENHFIHRDIAARNCLLTCPGPGRVAKIGDFGMARDIYRASYYRKGGCAMLPVKWMPPEAFMEGIFTSKTDTWSFGVLLWEIFSLGYMPYPSKSNQEVLEFVTSGGRMDPPKNCPGPVYRIMTQCWQHQPEDRPNFAIILERIEYCTQDPDVINTALPIEYGPLVEEEEKVPVRPKDPEGVPPLLVSQQAKREEERSPAAPPPLPTTSSGKAAKKPTAAEISVRVPRGPAVEGGHVNMAFSQSNPPSELHKVHGSRNKPTSLWNPTYGSWFTEKPTKKNNPIAKKEPHDRGNLGLEGSCTVPPNVATGRLPGASLLLEPSSLTANMKEVPLFRLRHFPCGNVNYGYQQQGLPLEAATAPGAGHYEDTILKSKNSMNQPGP

> <PDB ID(s) of Target Chain>
2XB7,2XBA,3AOX,5FTO,5FTQ,6E0R,6EBW,6EDL,6MX8

> <UniProt (SwissProt) Recommended Name of Target Chain>
ALK tyrosine kinase receptor

> <UniProt (SwissProt) Entry Name of Target Chain>
ALK_HUMAN

> <UniProt (SwissProt) Primary ID of Target Chain>
Q9UM73

> <UniProt (SwissProt) Secondary ID(s) of Target Chain>
Q4ZFX9,Q53QQ6,Q53RZ4,Q59FI3,Q9Y4K6

> <UniProt (SwissProt) Alternative ID(s) of Target Chain>


> <UniProt (TrEMBL) Submitted Name of Target Chain>


> <UniProt (TrEMBL) Entry Name of Target Chain>


> <UniProt (TrEMBL) Primary ID of Target Chain>


> <UniProt (TrEMBL) Secondary ID(s) of Target Chain>


> <UniProt (TrEMBL) Alternative ID(s) of Target Chain>


$$$$
BindingDB_50185153_mol_1

Vconf v2.0 Academic SN VC001-00000579
 20 21  0  0  0  0  0  0  0  0999 V2000
    7.5122    0.5295    0.0000 O   0  0  0  0  0  0  0  0  0  0  0
    6.7891    0.1441    0.0000 C   0  0  0  0  0  0  0  0  0  0  0
    6.9320   -0.6773    0.0000 C   0  0  0  0  0  0  0  0  0  0  0
    7.7388   -0.7850    0.0000 C   0  0  0  0  0  0  0  0  0  0  0
    8.1009   -0.0461    0.0000 C   0  0  0  0  0  0  0  0  0  0  0
    6.0478    0.5062    0.0000 C   0  0  0  0  0  0  0  0  0  0  0
    5.3635    0.0453    0.0000 O   0  0  0  0  0  0  0  0  0  0  0
    8.9139    0.0938    0.0000 C   0  0  0  0  0  0  0  0  0  0  0
    9.4417   -0.5403    0.0000 C   0  0  0  0  0  0  0  0  0  0  0
    9.2396   -1.3381    0.0000 C   0  0  0  0  0  0  0  0  0  0  0
    9.9375   -1.7781    0.0000 C   0  0  2  0  0  0  0  0  0  0  0
   10.5716   -1.2504    0.0000 O   0  0  0  0  0  0  0  0  0  0  0
   10.2656   -0.4843    0.0000 C   0  0  2  0  0  0  0  0  0  0  0
    8.4735   -1.6442    0.0000 O   0  0  0  0  0  0  0  0  0  0  0
    9.9917   -2.6013    0.0000 O   0  0  0  0  0  0  0  0  0  0  0
    9.3059   -3.0599    0.0000 C   0  0  0  0  0  0  0  0  0  0  0
   10.7048    0.2141    0.0000 C   0  0  0  0  0  0  0  0  0  0  0
   11.5292    0.1829    0.0000 C   0  0  0  0  0  0  0  0  0  0  0
   11.9144   -0.5466    0.0000 O   0  0  0  0  0  0  0  0  0  0  0
   10.3196    0.9437    0.0000 O   0  0  0  0  0  0  0  0  0  0  0
  4  5  4  0  0  0  0
  5  1  4  0  0  0  0
  2  6  1  0  0  0  0
 10 11  1  0  0  0  0
 11 12  1  0  0  0  0
 12 13  1  0  0  0  0
 13  9  1  0  0  0  0
  1  2  4  0  0  0  0
 10 14  2  0  0  0  0
  6  7  1  0  0  0  0
 11 15  1  6  0  0  0
  2  3  4  0  0  0  0
 15 16  1  0  0  0  0
  5  8  1  0  0  0  0
 13 17  1  1  0  0  0
  3  4  4  0  0  0  0
 17 18  1  0  0  0  0
  8  9  2  0  0  0  0
 18 19  1  0  0  0  0
  9 10  1  0  0  0  0
 17 20  1  0  0  0  0
M  END
> <From>
www.bindingDB.org

> <BindingDB Reactant_set_id>
50506510

> <Ligand InChI>
InChI=1S/C29H38ClN7O2/c1-20(38)23-6-4-5-7-25(23)32-28-24(30)19-31-29(34-28)33-26-9-8-22(18-27(26)39-3)36-12-10-21(11-13-36)37-16-14-35(2)15-17-37/h4-9,18-21,38H,10-17H2,1-3H3,(H2,31,32,33,34)

> <Ligand InChI Key>
HHXONKYVQVDMAS-UHFFFAOYSA-N

> <BindingDB MonomerID>
50185153

> <BindingDB Ligand Name>
CHEMBL3822499

> <Target Name Assigned by Curator or DataSource>
ALK tyrosine kinase receptor

> <Target Source Organism According to Curator or DataSource>
Homo sapiens

> <Ki (nM)>


> <IC50 (nM)>
 0.990000

> <Kd (nM)>


> <EC50 (nM)>


> <kon (M-1-s-1)>


> <koff (s-1)>


> <pH>


> <Temp C>


> <Curation/DataSource>
ChEMBL

> <Article DOI>
10.1021/acs.jmedchem.6b00306

> <PMID>
27144831

> <PubChem AID>


> <Patent Number>


> <Authors>
Huang, WS; Liu, S; Zou, D; Thomas, M; Wang, Y; Zhou, T; Romero, J; Kohlmann, A; Li, F; Qi, J; Cai, L; Dwight, TA; Xu, Y; Xu, R; Dodd, R; Toms, A; Parillon, L; Lu, X; Anjum, R; Zhang, S; Wang, F; Keats, J; Wardwell, SD; Ning, Y; Xu, Q; Moran, LE; Mohemmad, QK; Jang, HG; Clackson, T; Narasimhan, NI; Rivera, VM; Zhu, X; Dalgarno, D; Shakespeare, WC

> <Institution>
ARIAD Pharmaceuticals, Inc.

> <Link to Ligand in BindingDB>
http://www.bindingdb.org/bind/chemsearch/marvin/MolStructure.jsp?monomerid=50185153

> <Link to Ligand-Target Pair in BindingDB>
http://www.bindingdb.org/jsp/dbsearch/PrimarySearch_ki.jsp?energyterm=kJ/mole&tag=pol&polymerid=5809&target=ALK+tyrosine+kinase+receptor&column=ki&startPg=0&Increment=50&submit=Search

> <Link to Ligand-Target Pair in BindingDB>
http://www.bindingdb.org/jsp/dbsearch/PrimarySearch_ki.jsp?energyterm=kJ/mole&tag=r21&monomerid=50185153&enzyme=ALK+tyrosine+kinase+receptor&column=ki&startPg=0&Increment=50&submit=Search

> <Ligand HET ID in PDB>


> <PDB ID(s) for Ligand-Target Complex>


> <PubChem CID>
127049464

> <PubChem SID>
104069388

> <ChEBI ID of Ligand>


> <ChEMBL ID of Ligand>
CHEMBL3822499

> <DrugBank ID of Ligand>


> <IUPHAR_GRAC ID of Ligand>


> <KEGG ID of Ligand>


> <ZINC ID of Ligand>
ZINC34603868

> <Number of Protein Chains in Target (>1 implies a multichain complex)>
1

> <BindingDB Target Chain Sequence>
MGAIGLLWLLPLLLSTAAVGSGMGTGQRAGSPAAGPPLQPREPLSYSRLQRKSLAVDFVVPSLFRVYARDLLLPPSSSELKAGRPEARGSLALDCAPLLRLLGPAPGVSWTAGSPAPAEARTLSRVLKGGSVRKLRRAKQLVLELGEEAILEGCVGPPGEAAVGLLQFNLSELFSWWIRQGEGRLRIRLMPEKKASEVGREGRLSAAIRASQPRLLFQIFGTGHSSLESPTNMPSPSPDYFTWNLTWIMKDSFPFLSHRSRYGLECSFDFPCELEYSPPLHDLRNQSWSWRRIPSEEASQMDLLDGPGAERSKEMPRGSFLLLNTSADSKHTILSPWMRSSSEHCTLAVSVHRHLQPSGRYIAQLLPHNEAAREILLMPTPGKHGWTVLQGRIGRPDNPFRVALEYISSGNRSLSAVDFFALKNCSEGTSPGSKMALQSSFTCWNGTVLQLGQACDFHQDCAQGEDESQMCRKLPVGFYCNFEDGFCGWTQGTLSPHTPQWQVRTLKDARFQDHQDHALLLSTTDVPASESATVTSATFPAPIKSSPCELRMSWLIRGVLRGNVSLVLVENKTGKEQGRMVWHVAAYEGLSLWQWMVLPLLDVSDRFWLQMVAWWGQGSRAIVAFDNISISLDCYLTISGEDKILQNTAPKSRNLFERNPNKELKPGENSPRQTPIFDPTVHWLFTTCGASGPHGPTQAQCNNAYQNSNLSVEVGSEGPLKGIQIWKVPATDTYSISGYGAAGGKGGKNTMMRSHGVSVLGIFNLEKDDMLYILVGQQGEDACPSTNQLIQKVCIGENNVIEEEIRVNRSVHEWAGGGGGGGGATYVFKMKDGVPVPLIIAAGGGGRAYGAKTDTFHPERLENNSSVLGLNGNSGAAGGGGGWNDNTSLLWAGKSLQEGATGGHSCPQAMKKWGWETRGGFGGGGGGCSSGGGGGGYIGGNAASNNDPEMDGEDGVSFISPLGILYTPALKVMEGHGEVNIKHYLNCSHCEVDECHMDPESHKVICFCDHGTVLAEDGVSCIVSPTPEPHLPLSLILSVVTSALVAALVLAFSGIMIVYRRKHQELQAMQMELQSPEYKLSKLRTSTIMTDYNPNYCFAGKTSSISDLKEVPRKNITLIRGLGHGAFGEVYEGQVSGMPNDPSPLQVAVKTLPEVCSEQDELDFLMEALIISKFNHQNIVRCIGVSLQSLPRFILLELMAGGDLKSFLRETRPRPSQPSSLAMLDLLHVARDIACGCQYLEENHFIHRDIAARNCLLTCPGPGRVAKIGDFGMARDIYRASYYRKGGCAMLPVKWMPPEAFMEGIFTSKTDTWSFGVLLWEIFSLGYMPYPSKSNQEVLEFVTSGGRMDPPKNCPGPVYRIMTQCWQHQPEDRPNFAIILERIEYCTQDPDVINTALPIEYGPLVEEEEKVPVRPKDPEGVPPLLVSQQAKREEERSPAAPPPLPTTSSGKAAKKPTAAEISVRVPRGPAVEGGHVNMAFSQSNPPSELHKVHGSRNKPTSLWNPTYGSWFTEKPTKKNNPIAKKEPHDRGNLGLEGSCTVPPNVATGRLPGASLLLEPSSLTANMKEVPLFRLRHFPCGNVNYGYQQQGLPLEAATAPGAGHYEDTILKSKNSMNQPGP

> <PDB ID(s) of Target Chain>
2XB7,2XBA,3AOX,5FTO,5FTQ,6E0R,6EBW,6EDL,6MX8

> <UniProt (SwissProt) Recommended Name of Target Chain>
ALK tyrosine kinase receptor

> <UniProt (SwissProt) Entry Name of Target Chain>
ALK_HUMAN

> <UniProt (SwissProt) Primary ID of Target Chain>
Q9UM73

> <UniProt (SwissProt) Secondary ID(s) of Target Chain>
Q4ZFX9,Q53QQ6,Q53RZ4,Q59FI3,Q9Y4K6

> <UniProt (SwissProt) Alternative ID(s) of Target Chain>


> <UniProt (TrEMBL) Submitted Name of Target Chain>


> <UniProt (TrEMBL) Entry Name of Target Chain>


> <UniProt (TrEMBL) Primary ID of Target Chain>


> <UniProt (TrEMBL) Secondary ID(s) of Target Chain>


> <UniProt (TrEMBL) Alternative ID(s) of Target Chain>


$$$$

  SciTegic12211613482D

 39 43  0  0  0  0            999 V2000
    1.2990   -0.7500    0.0000 C   0  0
    1.2990    0.7500    0.0000 N   0  0
    0.0000    1.5000    0.0000 C   0  0
   -1.2990    0.7500    0.0000 C   0  0
   -1.2990   -0.7500    0.0000 C   0  0
    0.0000   -1.5000    0.0000 N   0  0
    2.5973   -1.5031    0.0000 N   0  0
    0.0031    3.0008    0.0000 N   0  0
    1.3039    3.7494    0.0000 C   0  0
    1.3092    5.2494    0.0000 C   0  0
    2.6108    5.9949    0.0000 C   0  0
    3.9072    5.2405    0.0000 C   0  0
    3.9020    3.7405    0.0000 C   0  0
    2.6004    2.9949    0.0000 C   0  0
    2.5951   -3.0039    0.0000 C   0  0
    3.8915   -3.7585    0.0000 C   0  0
    3.8864   -5.2585    0.0000 C   0  0
    2.5847   -6.0040    0.0000 C   0  0
    1.2883   -5.2495    0.0000 C   0  0
    1.2935   -3.7495    0.0000 C   0  0
    2.5795   -7.5047    0.0000 N   0  0
    3.8748   -8.2614    0.0000 C   0  0
    3.8672   -9.7614    0.0000 C   0  0
    2.5644  -10.5048    0.0000 C   0  0
    1.2692   -9.7483    0.0000 C   0  0
    1.2767   -8.2483    0.0000 C   0  0
    2.5568  -12.0055    0.0000 N   0  0
    3.8509  -12.7642    0.0000 C   0  0
    3.8409  -14.2642    0.0000 C   0  0
    2.5370  -15.0056    0.0000 N   0  0
    1.2429  -14.2470    0.0000 C   0  0
    1.2529  -12.7470    0.0000 C   0  0
    2.5290  -16.2056    0.0000 C   0  0
    5.1954   -3.0153    0.0000 O   0  0
    6.2317   -3.6204    0.0000 C   0  0
   -2.3383    1.3500    0.0000 Cl  0  0
    0.0136    6.0070    0.0000 C   0  0
    0.0195    7.2070    0.0000 O   0  0
   -1.0288    5.4125    0.0000 C   0  0
  1  2  1  0
  2  3  2  0
  3  4  1  0
  4  5  2  0
  5  6  1  0
  1  6  2  0
  1  7  1  0
  3  8  1  0
  9 10  1  0
 10 11  2  0
 11 12  1  0
 12 13  2  0
 13 14  1  0
  9 14  2  0
  8  9  1  0
 15 16  1  0
 16 17  2  0
 17 18  1  0
 18 19  2  0
 19 20  1  0
 15 20  2  0
 21 22  1  0
 22 23  1  0
 23 24  1  0
 24 25  1  0
 25 26  1  0
 21 26  1  0
 27 28  1  0
 28 29  1  0
 29 30  1  0
 30 31  1  0
 31 32  1  0
 27 32  1  0
 30 33  1  0
 24 27  1  0
 18 21  1  0
 34 35  1  0
 16 34  1  0
  7 15  1  0
  4 36  1  0
 10 37  1  0
 37 38  2  0
 37 39  1  0
M  END
> <From>
www.bindingDB.org

> <BindingDB Reactant_set_id>
50506511

> <Ligand InChI>
InChI=1S/C29H36ClN7O2/c1-20(38)23-6-4-5-7-25(23)32-28-24(30)19-31-29(34-28)33-26-9-8-22(18-27(26)39-3)36-12-10-21(11-13-36)37-16-14-35(2)15-17-37/h4-9,18-19,21H,10-17H2,1-3H3,(H2,31,32,33,34)

> <Ligand InChI Key>
RKXGEBJVNGSICG-UHFFFAOYSA-N

> <BindingDB MonomerID>
50185160

> <BindingDB Ligand Name>
CHEMBL3824301

> <Target Name Assigned by Curator or DataSource>
ALK tyrosine kinase receptor

> <Target Source Organism According to Curator or DataSource>
Homo sapiens

> <Ki (nM)>


> <IC50 (nM)>
 1.6

> <Kd (nM)>


> <EC50 (nM)>


> <kon (M-1-s-1)>


> <koff (s-1)>


> <pH>


> <Temp C>


> <Curation/DataSource>
ChEMBL

> <Article DOI>
10.1021/acs.jmedchem.6b00306

> <PMID>
27144831

> <PubChem AID>


> <Patent Number>


> <Authors>
Huang, WS; Liu, S; Zou, D; Thomas, M; Wang, Y; Zhou, T; Romero, J; Kohlmann, A; Li, F; Qi, J; Cai, L; Dwight, TA; Xu, Y; Xu, R; Dodd, R; Toms, A; Parillon, L; Lu, X; Anjum, R; Zhang, S; Wang, F; Keats, J; Wardwell, SD; Ning, Y; Xu, Q; Moran, LE; Mohemmad, QK; Jang, HG; Clackson, T; Narasimhan, NI; Rivera, VM; Zhu, X; Dalgarno, D; Shakespeare, WC

> <Institution>
ARIAD Pharmaceuticals, Inc.

> <Link to Ligand in BindingDB>
http://www.bindingdb.org/bind/chemsearch/marvin/MolStructure.jsp?monomerid=50185160

> <Link to Ligand-Target Pair in BindingDB>
http://www.bindingdb.org/jsp/dbsearch/PrimarySearch_ki.jsp?energyterm=kJ/mole&tag=pol&polymerid=5809&target=ALK+tyrosine+kinase+receptor&column=ki&startPg=0&Increment=50&submit=Search

> <Link to Ligand-Target Pair in BindingDB>
http://www.bindingdb.org/jsp/dbsearch/PrimarySearch_ki.jsp?energyterm=kJ/mole&tag=r21&monomerid=50185160&enzyme=ALK+tyrosine+kinase+receptor&column=ki&startPg=0&Increment=50&submit=Search

> <Ligand HET ID in PDB>


> <PDB ID(s) for Ligand-Target Complex>


> <PubChem CID>
127049463

> <PubChem SID>
346550516

> <ChEBI ID of Ligand>


> <ChEMBL ID of Ligand>
CHEMBL3824301

> <DrugBank ID of Ligand>


> <IUPHAR_GRAC ID of Ligand>


> <KEGG ID of Ligand>


> <ZINC ID of Ligand>


> <Number of Protein Chains in Target (>1 implies a multichain complex)>
1

> <BindingDB Target Chain Sequence>
MGAIGLLWLLPLLLSTAAVGSGMGTGQRAGSPAAGPPLQPREPLSYSRLQRKSLAVDFVVPSLFRVYARDLLLPPSSSELKAGRPEARGSLALDCAPLLRLLGPAPGVSWTAGSPAPAEARTLSRVLKGGSVRKLRRAKQLVLELGEEAILEGCVGPPGEAAVGLLQFNLSELFSWWIRQGEGRLRIRLMPEKKASEVGREGRLSAAIRASQPRLLFQIFGTGHSSLESPTNMPSPSPDYFTWNLTWIMKDSFPFLSHRSRYGLECSFDFPCELEYSPPLHDLRNQSWSWRRIPSEEASQMDLLDGPGAERSKEMPRGSFLLLNTSADSKHTILSPWMRSSSEHCTLAVSVHRHLQPSGRYIAQLLPHNEAAREILLMPTPGKHGWTVLQGRIGRPDNPFRVALEYISSGNRSLSAVDFFALKNCSEGTSPGSKMALQSSFTCWNGTVLQLGQACDFHQDCAQGEDESQMCRKLPVGFYCNFEDGFCGWTQGTLSPHTPQWQVRTLKDARFQDHQDHALLLSTTDVPASESATVTSATFPAPIKSSPCELRMSWLIRGVLRGNVSLVLVENKTGKEQGRMVWHVAAYEGLSLWQWMVLPLLDVSDRFWLQMVAWWGQGSRAIVAFDNISISLDCYLTISGEDKILQNTAPKSRNLFERNPNKELKPGENSPRQTPIFDPTVHWLFTTCGASGPHGPTQAQCNNAYQNSNLSVEVGSEGPLKGIQIWKVPATDTYSISGYGAAGGKGGKNTMMRSHGVSVLGIFNLEKDDMLYILVGQQGEDACPSTNQLIQKVCIGENNVIEEEIRVNRSVHEWAGGGGGGGGATYVFKMKDGVPVPLIIAAGGGGRAYGAKTDTFHPERLENNSSVLGLNGNSGAAGGGGGWNDNTSLLWAGKSLQEGATGGHSCPQAMKKWGWETRGGFGGGGGGCSSGGGGGGYIGGNAASNNDPEMDGEDGVSFISPLGILYTPALKVMEGHGEVNIKHYLNCSHCEVDECHMDPESHKVICFCDHGTVLAEDGVSCIVSPTPEPHLPLSLILSVVTSALVAALVLAFSGIMIVYRRKHQELQAMQMELQSPEYKLSKLRTSTIMTDYNPNYCFAGKTSSISDLKEVPRKNITLIRGLGHGAFGEVYEGQVSGMPNDPSPLQVAVKTLPEVCSEQDELDFLMEALIISKFNHQNIVRCIGVSLQSLPRFILLELMAGGDLKSFLRETRPRPSQPSSLAMLDLLHVARDIACGCQYLEENHFIHRDIAARNCLLTCPGPGRVAKIGDFGMARDIYRASYYRKGGCAMLPVKWMPPEAFMEGIFTSKTDTWSFGVLLWEIFSLGYMPYPSKSNQEVLEFVTSGGRMDPPKNCPGPVYRIMTQCWQHQPEDRPNFAIILERIEYCTQDPDVINTALPIEYGPLVEEEEKVPVRPKDPEGVPPLLVSQQAKREEERSPAAPPPLPTTSSGKAAKKPTAAEISVRVPRGPAVEGGHVNMAFSQSNPPSELHKVHGSRNKPTSLWNPTYGSWFTEKPTKKNNPIAKKEPHDRGNLGLEGSCTVPPNVATGRLPGASLLLEPSSLTANMKEVPLFRLRHFPCGNVNYGYQQQGLPLEAATAPGAGHYEDTILKSKNSMNQPGP

> <PDB ID(s) of Target Chain>
2XB7,2XBA,3AOX,5FTO,5FTQ,6E0R,6EBW,6EDL,6MX8

> <UniProt (SwissProt) Recommended Name of Target Chain>
ALK tyrosine kinase receptor

> <UniProt (SwissProt) Entry Name of Target Chain>
ALK_HUMAN

> <UniProt (SwissProt) Primary ID of Target Chain>
Q9UM73

> <UniProt (SwissProt) Secondary ID(s) of Target Chain>
Q4ZFX9,Q53QQ6,Q53RZ4,Q59FI3,Q9Y4K6

> <UniProt (SwissProt) Alternative ID(s) of Target Chain>


> <UniProt (TrEMBL) Submitted Name of Target Chain>


> <UniProt (TrEMBL) Entry Name of Target Chain>


> <UniProt (TrEMBL) Primary ID of Target Chain>


> <UniProt (TrEMBL) Secondary ID(s) of Target Chain>


> <UniProt (TrEMBL) Alternative ID(s) of Target Chain>


$$$$

  SciTegic12211613482D

 42 46  0  0  0  0            999 V2000
    0.0166    7.2044    0.0000 O   0  0
    0.0120    6.0044    0.0000 S   0  0
   -1.0248    6.6085    0.0000 O   0  0
    1.2990   -0.7500    0.0000 C   0  0
    1.2990    0.7500    0.0000 N   0  0
    0.0000    1.5000    0.0000 C   0  0
   -1.2990    0.7500    0.0000 C   0  0
   -1.2990   -0.7500    0.0000 C   0  0
    0.0000   -1.5000    0.0000 N   0  0
    2.5973   -1.5031    0.0000 N   0  0
    0.0031    3.0008    0.0000 N   0  0
    1.3039    3.7494    0.0000 C   0  0
    1.3092    5.2494    0.0000 C   0  0
    2.6108    5.9949    0.0000 C   0  0
    3.9072    5.2405    0.0000 C   0  0
    3.9020    3.7405    0.0000 C   0  0
    2.6004    2.9949    0.0000 C   0  0
    2.5951   -3.0039    0.0000 C   0  0
    3.8915   -3.7585    0.0000 C   0  0
    3.8864   -5.2585    0.0000 C   0  0
    2.5847   -6.0040    0.0000 C   0  0
    1.2883   -5.2495    0.0000 C   0  0
    1.2935   -3.7495    0.0000 C   0  0
    2.5795   -7.5047    0.0000 N   0  0
    3.8748   -8.2614    0.0000 C   0  0
    3.8672   -9.7614    0.0000 C   0  0
    2.5644  -10.5048    0.0000 C   0  0
    1.2692   -9.7483    0.0000 C   0  0
    1.2767   -8.2483    0.0000 C   0  0
    2.5568  -12.0055    0.0000 N   0  0
    3.8509  -12.7642    0.0000 C   0  0
    3.8409  -14.2642    0.0000 C   0  0
    2.5370  -15.0056    0.0000 N   0  0
    1.2429  -14.2470    0.0000 C   0  0
    1.2529  -12.7470    0.0000 C   0  0
    2.5290  -16.2056    0.0000 C   0  0
    5.1954   -3.0153    0.0000 O   0  0
    6.2317   -3.6204    0.0000 C   0  0
   -2.3383    1.3500    0.0000 Cl  0  0
   -1.2908    5.2593    0.0000 N   0  0
   -2.3279    5.8629    0.0000 C   0  0
   -1.2954    4.0593    0.0000 C   0  0
  2  1  2  0
  3  2  2  0
  4  5  1  0
  5  6  2  0
  6  7  1  0
  7  8  2  0
  8  9  1  0
  4  9  2  0
  4 10  1  0
  6 11  1  0
 12 13  1  0
 13 14  2  0
 14 15  1  0
 15 16  2  0
 16 17  1  0
 12 17  2  0
 11 12  1  0
 18 19  1  0
 19 20  2  0
 20 21  1  0
 21 22  2  0
 22 23  1  0
 18 23  2  0
 24 25  1  0
 25 26  1  0
 26 27  1  0
 27 28  1  0
 28 29  1  0
 24 29  1  0
 30 31  1  0
 31 32  1  0
 32 33  1  0
 33 34  1  0
 34 35  1  0
 30 35  1  0
 33 36  1  0
 27 30  1  0
 21 24  1  0
 37 38  1  0
 19 37  1  0
 10 18  1  0
  7 39  1  0
 13  2  1  0
  2 40  1  0
 40 41  1  0
 40 42  1  0
M  END
> <From>
www.bindingDB.org

> <BindingDB Reactant_set_id>
50506512

> <Ligand InChI>
InChI=1S/C29H39ClN8O3S/c1-35(2)42(39,40)27-8-6-5-7-25(27)32-28-23(30)20-31-29(34-28)33-24-10-9-22(19-26(24)41-4)37-13-11-21(12-14-37)38-17-15-36(3)16-18-38/h5-10,19-21H,11-18H2,1-4H3,(H2,31,32,33,34)

> <Ligand InChI Key>
WDUXPXHDIYWLHP-UHFFFAOYSA-N

> <BindingDB MonomerID>
50185161

> <BindingDB Ligand Name>
CHEMBL3822672

> <Target Name Assigned by Curator or DataSource>
ALK tyrosine kinase receptor

> <Target Source Organism According to Curator or DataSource>
Homo sapiens

> <Ki (nM)>


> <IC50 (nM)>
 0.750000

> <Kd (nM)>


> <EC50 (nM)>


> <kon (M-1-s-1)>


> <koff (s-1)>


> <pH>


> <Temp C>


> <Curation/DataSource>
ChEMBL

> <Article DOI>
10.1021/acs.jmedchem.6b00306

> <PMID>
27144831

> <PubChem AID>


> <Patent Number>


> <Authors>
Huang, WS; Liu, S; Zou, D; Thomas, M; Wang, Y; Zhou, T; Romero, J; Kohlmann, A; Li, F; Qi, J; Cai, L; Dwight, TA; Xu, Y; Xu, R; Dodd, R; Toms, A; Parillon, L; Lu, X; Anjum, R; Zhang, S; Wang, F; Keats, J; Wardwell, SD; Ning, Y; Xu, Q; Moran, LE; Mohemmad, QK; Jang, HG; Clackson, T; Narasimhan, NI; Rivera, VM; Zhu, X; Dalgarno, D; Shakespeare, WC

> <Institution>
ARIAD Pharmaceuticals, Inc.

> <Link to Ligand in BindingDB>
http://www.bindingdb.org/bind/chemsearch/marvin/MolStructure.jsp?monomerid=50185161

> <Link to Ligand-Target Pair in BindingDB>
http://www.bindingdb.org/jsp/dbsearch/PrimarySearch_ki.jsp?energyterm=kJ/mole&tag=pol&polymerid=5809&target=ALK+tyrosine+kinase+receptor&column=ki&startPg=0&Increment=50&submit=Search

> <Link to Ligand-Target Pair in BindingDB>
http://www.bindingdb.org/jsp/dbsearch/PrimarySearch_ki.jsp?energyterm=kJ/mole&tag=r21&monomerid=50185161&enzyme=ALK+tyrosine+kinase+receptor&column=ki&startPg=0&Increment=50&submit=Search

> <Ligand HET ID in PDB>


> <PDB ID(s) for Ligand-Target Complex>


> <PubChem CID>
127049440

> <PubChem SID>
346550517

> <ChEBI ID of Ligand>


> <ChEMBL ID of Ligand>
CHEMBL3822672

> <DrugBank ID of Ligand>


> <IUPHAR_GRAC ID of Ligand>


> <KEGG ID of Ligand>


> <ZINC ID of Ligand>


> <Number of Protein Chains in Target (>1 implies a multichain complex)>
1

> <BindingDB Target Chain Sequence>
MGAIGLLWLLPLLLSTAAVGSGMGTGQRAGSPAAGPPLQPREPLSYSRLQRKSLAVDFVVPSLFRVYARDLLLPPSSSELKAGRPEARGSLALDCAPLLRLLGPAPGVSWTAGSPAPAEARTLSRVLKGGSVRKLRRAKQLVLELGEEAILEGCVGPPGEAAVGLLQFNLSELFSWWIRQGEGRLRIRLMPEKKASEVGREGRLSAAIRASQPRLLFQIFGTGHSSLESPTNMPSPSPDYFTWNLTWIMKDSFPFLSHRSRYGLECSFDFPCELEYSPPLHDLRNQSWSWRRIPSEEASQMDLLDGPGAERSKEMPRGSFLLLNTSADSKHTILSPWMRSSSEHCTLAVSVHRHLQPSGRYIAQLLPHNEAAREILLMPTPGKHGWTVLQGRIGRPDNPFRVALEYISSGNRSLSAVDFFALKNCSEGTSPGSKMALQSSFTCWNGTVLQLGQACDFHQDCAQGEDESQMCRKLPVGFYCNFEDGFCGWTQGTLSPHTPQWQVRTLKDARFQDHQDHALLLSTTDVPASESATVTSATFPAPIKSSPCELRMSWLIRGVLRGNVSLVLVENKTGKEQGRMVWHVAAYEGLSLWQWMVLPLLDVSDRFWLQMVAWWGQGSRAIVAFDNISISLDCYLTISGEDKILQNTAPKSRNLFERNPNKELKPGENSPRQTPIFDPTVHWLFTTCGASGPHGPTQAQCNNAYQNSNLSVEVGSEGPLKGIQIWKVPATDTYSISGYGAAGGKGGKNTMMRSHGVSVLGIFNLEKDDMLYILVGQQGEDACPSTNQLIQKVCIGENNVIEEEIRVNRSVHEWAGGGGGGGGATYVFKMKDGVPVPLIIAAGGGGRAYGAKTDTFHPERLENNSSVLGLNGNSGAAGGGGGWNDNTSLLWAGKSLQEGATGGHSCPQAMKKWGWETRGGFGGGGGGCSSGGGGGGYIGGNAASNNDPEMDGEDGVSFISPLGILYTPALKVMEGHGEVNIKHYLNCSHCEVDECHMDPESHKVICFCDHGTVLAEDGVSCIVSPTPEPHLPLSLILSVVTSALVAALVLAFSGIMIVYRRKHQELQAMQMELQSPEYKLSKLRTSTIMTDYNPNYCFAGKTSSISDLKEVPRKNITLIRGLGHGAFGEVYEGQVSGMPNDPSPLQVAVKTLPEVCSEQDELDFLMEALIISKFNHQNIVRCIGVSLQSLPRFILLELMAGGDLKSFLRETRPRPSQPSSLAMLDLLHVARDIACGCQYLEENHFIHRDIAARNCLLTCPGPGRVAKIGDFGMARDIYRASYYRKGGCAMLPVKWMPPEAFMEGIFTSKTDTWSFGVLLWEIFSLGYMPYPSKSNQEVLEFVTSGGRMDPPKNCPGPVYRIMTQCWQHQPEDRPNFAIILERIEYCTQDPDVINTALPIEYGPLVEEEEKVPVRPKDPEGVPPLLVSQQAKREEERSPAAPPPLPTTSSGKAAKKPTAAEISVRVPRGPAVEGGHVNMAFSQSNPPSELHKVHGSRNKPTSLWNPTYGSWFTEKPTKKNNPIAKKEPHDRGNLGLEGSCTVPPNVATGRLPGASLLLEPSSLTANMKEVPLFRLRHFPCGNVNYGYQQQGLPLEAATAPGAGHYEDTILKSKNSMNQPGP

> <PDB ID(s) of Target Chain>
2XB7,2XBA,3AOX,5FTO,5FTQ,6E0R,6EBW,6EDL,6MX8

> <UniProt (SwissProt) Recommended Name of Target Chain>
ALK tyrosine kinase receptor

> <UniProt (SwissProt) Entry Name of Target Chain>
ALK_HUMAN

> <UniProt (SwissProt) Primary ID of Target Chain>
Q9UM73

> <UniProt (SwissProt) Secondary ID(s) of Target Chain>
Q4ZFX9,Q53QQ6,Q53RZ4,Q59FI3,Q9Y4K6

> <UniProt (SwissProt) Alternative ID(s) of Target Chain>


> <UniProt (TrEMBL) Submitted Name of Target Chain>


> <UniProt (TrEMBL) Entry Name of Target Chain>


> <UniProt (TrEMBL) Primary ID of Target Chain>


> <UniProt (TrEMBL) Secondary ID(s) of Target Chain>


> <UniProt (TrEMBL) Alternative ID(s) of Target Chain>


$$$$

  SciTegic12211613482D

 41 45  0  0  0  0            999 V2000
    1.2990   -0.7500    0.0000 C   0  0
    1.2990    0.7500    0.0000 N   0  0
    0.0000    1.5000    0.0000 C   0  0
   -1.2990    0.7500    0.0000 C   0  0
   -1.2990   -0.7500    0.0000 C   0  0
    0.0000   -1.5000    0.0000 N   0  0
    2.5973   -1.5031    0.0000 N   0  0
    0.0031    3.0008    0.0000 N   0  0
    1.3039    3.7494    0.0000 C   0  0
    1.3092    5.2494    0.0000 C   0  0
    2.6108    5.9949    0.0000 C   0  0
    3.9072    5.2405    0.0000 C   0  0
    3.9020    3.7405    0.0000 C   0  0
    2.6004    2.9949    0.0000 C   0  0
    2.5951   -3.0039    0.0000 C   0  0
    3.8915   -3.7585    0.0000 C   0  0
    3.8864   -5.2585    0.0000 C   0  0
    2.5847   -6.0040    0.0000 C   0  0
    1.2883   -5.2495    0.0000 C   0  0
    1.2935   -3.7495    0.0000 C   0  0
    2.5795   -7.5047    0.0000 N   0  0
    3.8748   -8.2614    0.0000 C   0  0
    3.8672   -9.7614    0.0000 C   0  0
    2.5644  -10.5048    0.0000 C   0  0
    1.2692   -9.7483    0.0000 C   0  0
    1.2767   -8.2483    0.0000 C   0  0
    2.5568  -12.0055    0.0000 N   0  0
    3.8509  -12.7642    0.0000 C   0  0
    3.8409  -14.2642    0.0000 C   0  0
    2.5370  -15.0056    0.0000 N   0  0
    1.2429  -14.2470    0.0000 C   0  0
    1.2529  -12.7470    0.0000 C   0  0
    2.5290  -16.2056    0.0000 C   0  0
    5.1954   -3.0153    0.0000 O   0  0
    6.2317   -3.6204    0.0000 C   0  0
   -2.3383    1.3500    0.0000 Cl  0  0
    0.0136    6.0070    0.0000 C   0  0
   -1.0288    5.4125    0.0000 O   0  0
    0.0210    7.5078    0.0000 N   0  0
   -1.0149    8.1136    0.0000 C   0  0
    1.0633    8.1024    0.0000 C   0  0
  1  2  1  0
  2  3  2  0
  3  4  1  0
  4  5  2  0
  5  6  1  0
  1  6  2  0
  1  7  1  0
  3  8  1  0
  9 10  1  0
 10 11  2  0
 11 12  1  0
 12 13  2  0
 13 14  1  0
  9 14  2  0
  8  9  1  0
 15 16  1  0
 16 17  2  0
 17 18  1  0
 18 19  2  0
 19 20  1  0
 15 20  2  0
 21 22  1  0
 22 23  1  0
 23 24  1  0
 24 25  1  0
 25 26  1  0
 21 26  1  0
 27 28  1  0
 28 29  1  0
 29 30  1  0
 30 31  1  0
 31 32  1  0
 27 32  1  0
 30 33  1  0
 24 27  1  0
 18 21  1  0
 34 35  1  0
 16 34  1  0
  7 15  1  0
  4 36  1  0
 10 37  1  0
 37 38  2  0
 37 39  1  0
 39 40  1  0
 39 41  1  0
M  END
> <From>
www.bindingDB.org

> <BindingDB Reactant_set_id>
50506513

> <Ligand InChI>
InChI=1S/C30H39ClN8O2/c1-36(2)29(40)23-7-5-6-8-25(23)33-28-24(31)20-32-30(35-28)34-26-10-9-22(19-27(26)41-4)38-13-11-21(12-14-38)39-17-15-37(3)16-18-39/h5-10,19-21H,11-18H2,1-4H3,(H2,32,33,34,35)

> <Ligand InChI Key>
IHRFTDHYCNWNFR-UHFFFAOYSA-N

> <BindingDB MonomerID>
50185162

> <BindingDB Ligand Name>
CHEMBL3823016

> <Target Name Assigned by Curator or DataSource>
ALK tyrosine kinase receptor

> <Target Source Organism According to Curator or DataSource>
Homo sapiens

> <Ki (nM)>


> <IC50 (nM)>
 4.8

> <Kd (nM)>


> <EC50 (nM)>


> <kon (M-1-s-1)>


> <koff (s-1)>


> <pH>


> <Temp C>


> <Curation/DataSource>
ChEMBL

> <Article DOI>
10.1021/acs.jmedchem.6b00306

> <PMID>
27144831

> <PubChem AID>


> <Patent Number>


> <Authors>
Huang, WS; Liu, S; Zou, D; Thomas, M; Wang, Y; Zhou, T; Romero, J; Kohlmann, A; Li, F; Qi, J; Cai, L; Dwight, TA; Xu, Y; Xu, R; Dodd, R; Toms, A; Parillon, L; Lu, X; Anjum, R; Zhang, S; Wang, F; Keats, J; Wardwell, SD; Ning, Y; Xu, Q; Moran, LE; Mohemmad, QK; Jang, HG; Clackson, T; Narasimhan, NI; Rivera, VM; Zhu, X; Dalgarno, D; Shakespeare, WC

> <Institution>
ARIAD Pharmaceuticals, Inc.

> <Link to Ligand in BindingDB>
http://www.bindingdb.org/bind/chemsearch/marvin/MolStructure.jsp?monomerid=50185162

> <Link to Ligand-Target Pair in BindingDB>
http://www.bindingdb.org/jsp/dbsearch/PrimarySearch_ki.jsp?energyterm=kJ/mole&tag=pol&polymerid=5809&target=ALK+tyrosine+kinase+receptor&column=ki&startPg=0&Increment=50&submit=Search

> <Link to Ligand-Target Pair in BindingDB>
http://www.bindingdb.org/jsp/dbsearch/PrimarySearch_ki.jsp?energyterm=kJ/mole&tag=r21&monomerid=50185162&enzyme=ALK+tyrosine+kinase+receptor&column=ki&startPg=0&Increment=50&submit=Search

> <Ligand HET ID in PDB>


> <PDB ID(s) for Ligand-Target Complex>


> <PubChem CID>
127049149

> <PubChem SID>
346550518

> <ChEBI ID of Ligand>


> <ChEMBL ID of Ligand>
CHEMBL3823016

> <DrugBank ID of Ligand>


> <IUPHAR_GRAC ID of Ligand>


> <KEGG ID of Ligand>


> <ZINC ID of Ligand>


> <Number of Protein Chains in Target (>1 implies a multichain complex)>
1

> <BindingDB Target Chain Sequence>
MGAIGLLWLLPLLLSTAAVGSGMGTGQRAGSPAAGPPLQPREPLSYSRLQRKSLAVDFVVPSLFRVYARDLLLPPSSSELKAGRPEARGSLALDCAPLLRLLGPAPGVSWTAGSPAPAEARTLSRVLKGGSVRKLRRAKQLVLELGEEAILEGCVGPPGEAAVGLLQFNLSELFSWWIRQGEGRLRIRLMPEKKASEVGREGRLSAAIRASQPRLLFQIFGTGHSSLESPTNMPSPSPDYFTWNLTWIMKDSFPFLSHRSRYGLECSFDFPCELEYSPPLHDLRNQSWSWRRIPSEEASQMDLLDGPGAERSKEMPRGSFLLLNTSADSKHTILSPWMRSSSEHCTLAVSVHRHLQPSGRYIAQLLPHNEAAREILLMPTPGKHGWTVLQGRIGRPDNPFRVALEYISSGNRSLSAVDFFALKNCSEGTSPGSKMALQSSFTCWNGTVLQLGQACDFHQDCAQGEDESQMCRKLPVGFYCNFEDGFCGWTQGTLSPHTPQWQVRTLKDARFQDHQDHALLLSTTDVPASESATVTSATFPAPIKSSPCELRMSWLIRGVLRGNVSLVLVENKTGKEQGRMVWHVAAYEGLSLWQWMVLPLLDVSDRFWLQMVAWWGQGSRAIVAFDNISISLDCYLTISGEDKILQNTAPKSRNLFERNPNKELKPGENSPRQTPIFDPTVHWLFTTCGASGPHGPTQAQCNNAYQNSNLSVEVGSEGPLKGIQIWKVPATDTYSISGYGAAGGKGGKNTMMRSHGVSVLGIFNLEKDDMLYILVGQQGEDACPSTNQLIQKVCIGENNVIEEEIRVNRSVHEWAGGGGGGGGATYVFKMKDGVPVPLIIAAGGGGRAYGAKTDTFHPERLENNSSVLGLNGNSGAAGGGGGWNDNTSLLWAGKSLQEGATGGHSCPQAMKKWGWETRGGFGGGGGGCSSGGGGGGYIGGNAASNNDPEMDGEDGVSFISPLGILYTPALKVMEGHGEVNIKHYLNCSHCEVDECHMDPESHKVICFCDHGTVLAEDGVSCIVSPTPEPHLPLSLILSVVTSALVAALVLAFSGIMIVYRRKHQELQAMQMELQSPEYKLSKLRTSTIMTDYNPNYCFAGKTSSISDLKEVPRKNITLIRGLGHGAFGEVYEGQVSGMPNDPSPLQVAVKTLPEVCSEQDELDFLMEALIISKFNHQNIVRCIGVSLQSLPRFILLELMAGGDLKSFLRETRPRPSQPSSLAMLDLLHVARDIACGCQYLEENHFIHRDIAARNCLLTCPGPGRVAKIGDFGMARDIYRASYYRKGGCAMLPVKWMPPEAFMEGIFTSKTDTWSFGVLLWEIFSLGYMPYPSKSNQEVLEFVTSGGRMDPPKNCPGPVYRIMTQCWQHQPEDRPNFAIILERIEYCTQDPDVINTALPIEYGPLVEEEEKVPVRPKDPEGVPPLLVSQQAKREEERSPAAPPPLPTTSSGKAAKKPTAAEISVRVPRGPAVEGGHVNMAFSQSNPPSELHKVHGSRNKPTSLWNPTYGSWFTEKPTKKNNPIAKKEPHDRGNLGLEGSCTVPPNVATGRLPGASLLLEPSSLTANMKEVPLFRLRHFPCGNVNYGYQQQGLPLEAATAPGAGHYEDTILKSKNSMNQPGP

> <PDB ID(s) of Target Chain>
2XB7,2XBA,3AOX,5FTO,5FTQ,6E0R,6EBW,6EDL,6MX8

> <UniProt (SwissProt) Recommended Name of Target Chain>
ALK tyrosine kinase receptor

> <UniProt (SwissProt) Entry Name of Target Chain>
ALK_HUMAN

> <UniProt (SwissProt) Primary ID of Target Chain>
Q9UM73

> <UniProt (SwissProt) Secondary ID(s) of Target Chain>
Q4ZFX9,Q53QQ6,Q53RZ4,Q59FI3,Q9Y4K6

> <UniProt (SwissProt) Alternative ID(s) of Target Chain>


> <UniProt (TrEMBL) Submitted Name of Target Chain>


> <UniProt (TrEMBL) Entry Name of Target Chain>


> <UniProt (TrEMBL) Primary ID of Target Chain>


> <UniProt (TrEMBL) Secondary ID(s) of Target Chain>


> <UniProt (TrEMBL) Alternative ID(s) of Target Chain>


$$$$

  SciTegic12211613482D

 39 43  0  0  0  0            999 V2000
    1.2990   -0.7500    0.0000 C   0  0
    1.2990    0.7500    0.0000 N   0  0
    0.0000    1.5000    0.0000 C   0  0
   -1.2990    0.7500    0.0000 C   0  0
   -1.2990   -0.7500    0.0000 C   0  0
    0.0000   -1.5000    0.0000 N   0  0
    2.5973   -1.5031    0.0000 N   0  0
    0.0031    3.0008    0.0000 N   0  0
    1.3039    3.7494    0.0000 C   0  0
    1.3092    5.2494    0.0000 C   0  0
    2.6108    5.9949    0.0000 C   0  0
    3.9072    5.2405    0.0000 C   0  0
    3.9020    3.7405    0.0000 C   0  0
    2.6004    2.9949    0.0000 C   0  0
    2.5951   -3.0039    0.0000 C   0  0
    3.8915   -3.7585    0.0000 C   0  0
    3.8864   -5.2585    0.0000 C   0  0
    2.5847   -6.0040    0.0000 C   0  0
    1.2883   -5.2495    0.0000 C   0  0
    1.2935   -3.7495    0.0000 C   0  0
    2.5795   -7.5047    0.0000 N   0  0
    3.8748   -8.2614    0.0000 C   0  0
    3.8672   -9.7614    0.0000 C   0  0
    2.5644  -10.5048    0.0000 C   0  0
    1.2692   -9.7483    0.0000 C   0  0
    1.2767   -8.2483    0.0000 C   0  0
    2.5568  -12.0055    0.0000 N   0  0
    3.8509  -12.7642    0.0000 C   0  0
    3.8409  -14.2642    0.0000 C   0  0
    2.5370  -15.0056    0.0000 N   0  0
    1.2429  -14.2470    0.0000 C   0  0
    1.2529  -12.7470    0.0000 C   0  0
    2.5290  -16.2056    0.0000 C   0  0
    5.1954   -3.0153    0.0000 O   0  0
    6.2317   -3.6204    0.0000 C   0  0
   -2.3383    1.3500    0.0000 Cl  0  0
    0.0136    6.0070    0.0000 C   0  0
    0.0195    7.2070    0.0000 O   0  0
   -1.0288    5.4125    0.0000 N   0  0
  1  2  1  0
  2  3  2  0
  3  4  1  0
  4  5  2  0
  5  6  1  0
  1  6  2  0
  1  7  1  0
  3  8  1  0
  9 10  1  0
 10 11  2  0
 11 12  1  0
 12 13  2  0
 13 14  1  0
  9 14  2  0
  8  9  1  0
 15 16  1  0
 16 17  2  0
 17 18  1  0
 18 19  2  0
 19 20  1  0
 15 20  2  0
 21 22  1  0
 22 23  1  0
 23 24  1  0
 24 25  1  0
 25 26  1  0
 21 26  1  0
 27 28  1  0
 28 29  1  0
 29 30  1  0
 30 31  1  0
 31 32  1  0
 27 32  1  0
 30 33  1  0
 24 27  1  0
 18 21  1  0
 34 35  1  0
 16 34  1  0
  7 15  1  0
  4 36  1  0
 10 37  1  0
 37 38  2  0
 37 39  1  0
M  END
> <From>
www.bindingDB.org

> <BindingDB Reactant_set_id>
50506514

> <Ligand InChI>
InChI=1S/C28H35ClN8O2/c1-35-13-15-37(16-14-35)19-9-11-36(12-10-19)20-7-8-24(25(17-20)39-2)33-28-31-18-22(29)27(34-28)32-23-6-4-3-5-21(23)26(30)38/h3-8,17-19H,9-16H2,1-2H3,(H2,30,38)(H2,31,32,33,34)

> <Ligand InChI Key>
DGIKQZFVNNRZMT-UHFFFAOYSA-N

> <BindingDB MonomerID>
50185163

> <BindingDB Ligand Name>
CHEMBL3824246

> <Target Name Assigned by Curator or DataSource>
ALK tyrosine kinase receptor

> <Target Source Organism According to Curator or DataSource>
Homo sapiens

> <Ki (nM)>


> <IC50 (nM)>
 0.800000

> <Kd (nM)>


> <EC50 (nM)>


> <kon (M-1-s-1)>


> <koff (s-1)>


> <pH>


> <Temp C>


> <Curation/DataSource>
ChEMBL

> <Article DOI>
10.1021/acs.jmedchem.6b00306

> <PMID>
27144831

> <PubChem AID>


> <Patent Number>


> <Authors>
Huang, WS; Liu, S; Zou, D; Thomas, M; Wang, Y; Zhou, T; Romero, J; Kohlmann, A; Li, F; Qi, J; Cai, L; Dwight, TA; Xu, Y; Xu, R; Dodd, R; Toms, A; Parillon, L; Lu, X; Anjum, R; Zhang, S; Wang, F; Keats, J; Wardwell, SD; Ning, Y; Xu, Q; Moran, LE; Mohemmad, QK; Jang, HG; Clackson, T; Narasimhan, NI; Rivera, VM; Zhu, X; Dalgarno, D; Shakespeare, WC

> <Institution>
ARIAD Pharmaceuticals, Inc.

> <Link to Ligand in BindingDB>
http://www.bindingdb.org/bind/chemsearch/marvin/MolStructure.jsp?monomerid=50185163

> <Link to Ligand-Target Pair in BindingDB>
http://www.bindingdb.org/jsp/dbsearch/PrimarySearch_ki.jsp?energyterm=kJ/mole&tag=pol&polymerid=5809&target=ALK+tyrosine+kinase+receptor&column=ki&startPg=0&Increment=50&submit=Search

> <Link to Ligand-Target Pair in BindingDB>
http://www.bindingdb.org/jsp/dbsearch/PrimarySearch_ki.jsp?energyterm=kJ/mole&tag=r21&monomerid=50185163&enzyme=ALK+tyrosine+kinase+receptor&column=ki&startPg=0&Increment=50&submit=Search

> <Ligand HET ID in PDB>


> <PDB ID(s) for Ligand-Target Complex>


> <PubChem CID>
127049148

> <PubChem SID>
346550519

> <ChEBI ID of Ligand>


> <ChEMBL ID of Ligand>
CHEMBL3824246

> <DrugBank ID of Ligand>


> <IUPHAR_GRAC ID of Ligand>


> <KEGG ID of Ligand>


> <ZINC ID of Ligand>


> <Number of Protein Chains in Target (>1 implies a multichain complex)>
1

> <BindingDB Target Chain Sequence>
MGAIGLLWLLPLLLSTAAVGSGMGTGQRAGSPAAGPPLQPREPLSYSRLQRKSLAVDFVVPSLFRVYARDLLLPPSSSELKAGRPEARGSLALDCAPLLRLLGPAPGVSWTAGSPAPAEARTLSRVLKGGSVRKLRRAKQLVLELGEEAILEGCVGPPGEAAVGLLQFNLSELFSWWIRQGEGRLRIRLMPEKKASEVGREGRLSAAIRASQPRLLFQIFGTGHSSLESPTNMPSPSPDYFTWNLTWIMKDSFPFLSHRSRYGLECSFDFPCELEYSPPLHDLRNQSWSWRRIPSEEASQMDLLDGPGAERSKEMPRGSFLLLNTSADSKHTILSPWMRSSSEHCTLAVSVHRHLQPSGRYIAQLLPHNEAAREILLMPTPGKHGWTVLQGRIGRPDNPFRVALEYISSGNRSLSAVDFFALKNCSEGTSPGSKMALQSSFTCWNGTVLQLGQACDFHQDCAQGEDESQMCRKLPVGFYCNFEDGFCGWTQGTLSPHTPQWQVRTLKDARFQDHQDHALLLSTTDVPASESATVTSATFPAPIKSSPCELRMSWLIRGVLRGNVSLVLVENKTGKEQGRMVWHVAAYEGLSLWQWMVLPLLDVSDRFWLQMVAWWGQGSRAIVAFDNISISLDCYLTISGEDKILQNTAPKSRNLFERNPNKELKPGENSPRQTPIFDPTVHWLFTTCGASGPHGPTQAQCNNAYQNSNLSVEVGSEGPLKGIQIWKVPATDTYSISGYGAAGGKGGKNTMMRSHGVSVLGIFNLEKDDMLYILVGQQGEDACPSTNQLIQKVCIGENNVIEEEIRVNRSVHEWAGGGGGGGGATYVFKMKDGVPVPLIIAAGGGGRAYGAKTDTFHPERLENNSSVLGLNGNSGAAGGGGGWNDNTSLLWAGKSLQEGATGGHSCPQAMKKWGWETRGGFGGGGGGCSSGGGGGGYIGGNAASNNDPEMDGEDGVSFISPLGILYTPALKVMEGHGEVNIKHYLNCSHCEVDECHMDPESHKVICFCDHGTVLAEDGVSCIVSPTPEPHLPLSLILSVVTSALVAALVLAFSGIMIVYRRKHQELQAMQMELQSPEYKLSKLRTSTIMTDYNPNYCFAGKTSSISDLKEVPRKNITLIRGLGHGAFGEVYEGQVSGMPNDPSPLQVAVKTLPEVCSEQDELDFLMEALIISKFNHQNIVRCIGVSLQSLPRFILLELMAGGDLKSFLRETRPRPSQPSSLAMLDLLHVARDIACGCQYLEENHFIHRDIAARNCLLTCPGPGRVAKIGDFGMARDIYRASYYRKGGCAMLPVKWMPPEAFMEGIFTSKTDTWSFGVLLWEIFSLGYMPYPSKSNQEVLEFVTSGGRMDPPKNCPGPVYRIMTQCWQHQPEDRPNFAIILERIEYCTQDPDVINTALPIEYGPLVEEEEKVPVRPKDPEGVPPLLVSQQAKREEERSPAAPPPLPTTSSGKAAKKPTAAEISVRVPRGPAVEGGHVNMAFSQSNPPSELHKVHGSRNKPTSLWNPTYGSWFTEKPTKKNNPIAKKEPHDRGNLGLEGSCTVPPNVATGRLPGASLLLEPSSLTANMKEVPLFRLRHFPCGNVNYGYQQQGLPLEAATAPGAGHYEDTILKSKNSMNQPGP

> <PDB ID(s) of Target Chain>
2XB7,2XBA,3AOX,5FTO,5FTQ,6E0R,6EBW,6EDL,6MX8

> <UniProt (SwissProt) Recommended Name of Target Chain>
ALK tyrosine kinase receptor

> <UniProt (SwissProt) Entry Name of Target Chain>
ALK_HUMAN

> <UniProt (SwissProt) Primary ID of Target Chain>
Q9UM73

> <UniProt (SwissProt) Secondary ID(s) of Target Chain>
Q4ZFX9,Q53QQ6,Q53RZ4,Q59FI3,Q9Y4K6

> <UniProt (SwissProt) Alternative ID(s) of Target Chain>


> <UniProt (TrEMBL) Submitted Name of Target Chain>


> <UniProt (TrEMBL) Entry Name of Target Chain>


> <UniProt (TrEMBL) Primary ID of Target Chain>


> <UniProt (TrEMBL) Secondary ID(s) of Target Chain>


> <UniProt (TrEMBL) Alternative ID(s) of Target Chain>


$$$$

  SciTegic12211613482D

 38 42  0  0  0  0            999 V2000
    1.2990   -0.7500    0.0000 C   0  0
    1.2990    0.7500    0.0000 N   0  0
    0.0000    1.5000    0.0000 C   0  0
   -1.2990    0.7500    0.0000 C   0  0
   -1.2990   -0.7500    0.0000 C   0  0
    0.0000   -1.5000    0.0000 N   0  0
    2.5973   -1.5031    0.0000 N   0  0
    0.0031    3.0008    0.0000 N   0  0
    1.3039    3.7494    0.0000 C   0  0
    1.3092    5.2494    0.0000 C   0  0
    2.6108    5.9949    0.0000 C   0  0
    3.9072    5.2405    0.0000 C   0  0
    3.9020    3.7405    0.0000 C   0  0
    2.6004    2.9949    0.0000 C   0  0
    2.5951   -3.0039    0.0000 C   0  0
    3.8915   -3.7585    0.0000 C   0  0
    3.8864   -5.2585    0.0000 C   0  0
    2.5847   -6.0040    0.0000 C   0  0
    1.2883   -5.2495    0.0000 C   0  0
    1.2935   -3.7495    0.0000 C   0  0
    2.5795   -7.5047    0.0000 N   0  0
    3.8748   -8.2614    0.0000 C   0  0
    3.8672   -9.7614    0.0000 C   0  0
    2.5644  -10.5048    0.0000 C   0  0
    1.2692   -9.7483    0.0000 C   0  0
    1.2767   -8.2483    0.0000 C   0  0
    2.5568  -12.0055    0.0000 N   0  0
    3.8509  -12.7642    0.0000 C   0  0
    3.8409  -14.2642    0.0000 C   0  0
    2.5370  -15.0056    0.0000 N   0  0
    1.2429  -14.2470    0.0000 C   0  0
    1.2529  -12.7470    0.0000 C   0  0
    2.5290  -16.2056    0.0000 C   0  0
    5.1954   -3.0153    0.0000 O   0  0
    6.2317   -3.6204    0.0000 C   0  0
   -2.3383    1.3500    0.0000 Cl  0  0
    0.0136    6.0070    0.0000 O   0  0
    0.0195    7.2070    0.0000 C   0  0
  1  2  1  0
  2  3  2  0
  3  4  1  0
  4  5  2  0
  5  6  1  0
  1  6  2  0
  1  7  1  0
  3  8  1  0
  9 10  1  0
 10 11  2  0
 11 12  1  0
 12 13  2  0
 13 14  1  0
  9 14  2  0
  8  9  1  0
 15 16  1  0
 16 17  2  0
 17 18  1  0
 18 19  2  0
 19 20  1  0
 15 20  2  0
 21 22  1  0
 22 23  1  0
 23 24  1  0
 24 25  1  0
 25 26  1  0
 21 26  1  0
 27 28  1  0
 28 29  1  0
 29 30  1  0
 30 31  1  0
 31 32  1  0
 27 32  1  0
 30 33  1  0
 24 27  1  0
 18 21  1  0
 34 35  1  0
 16 34  1  0
  7 15  1  0
  4 36  1  0
 37 38  1  0
 10 37  1  0
M  END
> <From>
www.bindingDB.org

> <BindingDB Reactant_set_id>
50506515

> <Ligand InChI>
InChI=1S/C28H36ClN7O2/c1-34-14-16-36(17-15-34)20-10-12-35(13-11-20)21-8-9-24(26(18-21)38-3)32-28-30-19-22(29)27(33-28)31-23-6-4-5-7-25(23)37-2/h4-9,18-20H,10-17H2,1-3H3,(H2,30,31,32,33)

> <Ligand InChI Key>
DRYWSMFQHZVTJK-UHFFFAOYSA-N

> <BindingDB MonomerID>
50185164

> <BindingDB Ligand Name>
CHEMBL3823045

> <Target Name Assigned by Curator or DataSource>
ALK tyrosine kinase receptor

> <Target Source Organism According to Curator or DataSource>
Homo sapiens

> <Ki (nM)>


> <IC50 (nM)>
 1.9

> <Kd (nM)>


> <EC50 (nM)>


> <kon (M-1-s-1)>


> <koff (s-1)>


> <pH>


> <Temp C>


> <Curation/DataSource>
ChEMBL

> <Article DOI>
10.1021/acs.jmedchem.6b00306

> <PMID>
27144831

> <PubChem AID>


> <Patent Number>


> <Authors>
Huang, WS; Liu, S; Zou, D; Thomas, M; Wang, Y; Zhou, T; Romero, J; Kohlmann, A; Li, F; Qi, J; Cai, L; Dwight, TA; Xu, Y; Xu, R; Dodd, R; Toms, A; Parillon, L; Lu, X; Anjum, R; Zhang, S; Wang, F; Keats, J; Wardwell, SD; Ning, Y; Xu, Q; Moran, LE; Mohemmad, QK; Jang, HG; Clackson, T; Narasimhan, NI; Rivera, VM; Zhu, X; Dalgarno, D; Shakespeare, WC

> <Institution>
ARIAD Pharmaceuticals, Inc.

> <Link to Ligand in BindingDB>
http://www.bindingdb.org/bind/chemsearch/marvin/MolStructure.jsp?monomerid=50185164

> <Link to Ligand-Target Pair in BindingDB>
http://www.bindingdb.org/jsp/dbsearch/PrimarySearch_ki.jsp?energyterm=kJ/mole&tag=pol&polymerid=5809&target=ALK+tyrosine+kinase+receptor&column=ki&startPg=0&Increment=50&submit=Search

> <Link to Ligand-Target Pair in BindingDB>
http://www.bindingdb.org/jsp/dbsearch/PrimarySearch_ki.jsp?energyterm=kJ/mole&tag=r21&monomerid=50185164&enzyme=ALK+tyrosine+kinase+receptor&column=ki&startPg=0&Increment=50&submit=Search

> <Ligand HET ID in PDB>


> <PDB ID(s) for Ligand-Target Complex>


> <PubChem CID>
89773146

> <PubChem SID>
346550520

> <ChEBI ID of Ligand>


> <ChEMBL ID of Ligand>
CHEMBL3823045

> <DrugBank ID of Ligand>


> <IUPHAR_GRAC ID of Ligand>


> <KEGG ID of Ligand>


> <ZINC ID of Ligand>


> <Number of Protein Chains in Target (>1 implies a multichain complex)>
1

> <BindingDB Target Chain Sequence>
MGAIGLLWLLPLLLSTAAVGSGMGTGQRAGSPAAGPPLQPREPLSYSRLQRKSLAVDFVVPSLFRVYARDLLLPPSSSELKAGRPEARGSLALDCAPLLRLLGPAPGVSWTAGSPAPAEARTLSRVLKGGSVRKLRRAKQLVLELGEEAILEGCVGPPGEAAVGLLQFNLSELFSWWIRQGEGRLRIRLMPEKKASEVGREGRLSAAIRASQPRLLFQIFGTGHSSLESPTNMPSPSPDYFTWNLTWIMKDSFPFLSHRSRYGLECSFDFPCELEYSPPLHDLRNQSWSWRRIPSEEASQMDLLDGPGAERSKEMPRGSFLLLNTSADSKHTILSPWMRSSSEHCTLAVSVHRHLQPSGRYIAQLLPHNEAAREILLMPTPGKHGWTVLQGRIGRPDNPFRVALEYISSGNRSLSAVDFFALKNCSEGTSPGSKMALQSSFTCWNGTVLQLGQACDFHQDCAQGEDESQMCRKLPVGFYCNFEDGFCGWTQGTLSPHTPQWQVRTLKDARFQDHQDHALLLSTTDVPASESATVTSATFPAPIKSSPCELRMSWLIRGVLRGNVSLVLVENKTGKEQGRMVWHVAAYEGLSLWQWMVLPLLDVSDRFWLQMVAWWGQGSRAIVAFDNISISLDCYLTISGEDKILQNTAPKSRNLFERNPNKELKPGENSPRQTPIFDPTVHWLFTTCGASGPHGPTQAQCNNAYQNSNLSVEVGSEGPLKGIQIWKVPATDTYSISGYGAAGGKGGKNTMMRSHGVSVLGIFNLEKDDMLYILVGQQGEDACPSTNQLIQKVCIGENNVIEEEIRVNRSVHEWAGGGGGGGGATYVFKMKDGVPVPLIIAAGGGGRAYGAKTDTFHPERLENNSSVLGLNGNSGAAGGGGGWNDNTSLLWAGKSLQEGATGGHSCPQAMKKWGWETRGGFGGGGGGCSSGGGGGGYIGGNAASNNDPEMDGEDGVSFISPLGILYTPALKVMEGHGEVNIKHYLNCSHCEVDECHMDPESHKVICFCDHGTVLAEDGVSCIVSPTPEPHLPLSLILSVVTSALVAALVLAFSGIMIVYRRKHQELQAMQMELQSPEYKLSKLRTSTIMTDYNPNYCFAGKTSSISDLKEVPRKNITLIRGLGHGAFGEVYEGQVSGMPNDPSPLQVAVKTLPEVCSEQDELDFLMEALIISKFNHQNIVRCIGVSLQSLPRFILLELMAGGDLKSFLRETRPRPSQPSSLAMLDLLHVARDIACGCQYLEENHFIHRDIAARNCLLTCPGPGRVAKIGDFGMARDIYRASYYRKGGCAMLPVKWMPPEAFMEGIFTSKTDTWSFGVLLWEIFSLGYMPYPSKSNQEVLEFVTSGGRMDPPKNCPGPVYRIMTQCWQHQPEDRPNFAIILERIEYCTQDPDVINTALPIEYGPLVEEEEKVPVRPKDPEGVPPLLVSQQAKREEERSPAAPPPLPTTSSGKAAKKPTAAEISVRVPRGPAVEGGHVNMAFSQSNPPSELHKVHGSRNKPTSLWNPTYGSWFTEKPTKKNNPIAKKEPHDRGNLGLEGSCTVPPNVATGRLPGASLLLEPSSLTANMKEVPLFRLRHFPCGNVNYGYQQQGLPLEAATAPGAGHYEDTILKSKNSMNQPGP

> <PDB ID(s) of Target Chain>
2XB7,2XBA,3AOX,5FTO,5FTQ,6E0R,6EBW,6EDL,6MX8

> <UniProt (SwissProt) Recommended Name of Target Chain>
ALK tyrosine kinase receptor

> <UniProt (SwissProt) Entry Name of Target Chain>
ALK_HUMAN

> <UniProt (SwissProt) Primary ID of Target Chain>
Q9UM73

> <UniProt (SwissProt) Secondary ID(s) of Target Chain>
Q4ZFX9,Q53QQ6,Q53RZ4,Q59FI3,Q9Y4K6

> <UniProt (SwissProt) Alternative ID(s) of Target Chain>


> <UniProt (TrEMBL) Submitted Name of Target Chain>


> <UniProt (TrEMBL) Entry Name of Target Chain>


> <UniProt (TrEMBL) Primary ID of Target Chain>


> <UniProt (TrEMBL) Secondary ID(s) of Target Chain>


> <UniProt (TrEMBL) Alternative ID(s) of Target Chain>


$$$$

  SciTegic12211613482D

 38 42  0  0  0  0            999 V2000
    1.2990   -0.7500    0.0000 C   0  0
    1.2990    0.7500    0.0000 N   0  0
    0.0000    1.5000    0.0000 C   0  0
   -1.2990    0.7500    0.0000 C   0  0
   -1.2990   -0.7500    0.0000 C   0  0
    0.0000   -1.5000    0.0000 N   0  0
    2.5973   -1.5031    0.0000 N   0  0
    0.0031    3.0008    0.0000 N   0  0
    1.3039    3.7494    0.0000 C   0  0
    1.3092    5.2494    0.0000 C   0  0
    2.6108    5.9949    0.0000 C   0  0
    3.9072    5.2405    0.0000 C   0  0
    3.9020    3.7405    0.0000 C   0  0
    2.6004    2.9949    0.0000 C   0  0
    2.5951   -3.0039    0.0000 C   0  0
    3.8915   -3.7585    0.0000 C   0  0
    3.8864   -5.2585    0.0000 C   0  0
    2.5847   -6.0040    0.0000 C   0  0
    1.2883   -5.2495    0.0000 C   0  0
    1.2935   -3.7495    0.0000 C   0  0
    2.5795   -7.5047    0.0000 N   0  0
    3.8748   -8.2614    0.0000 C   0  0
    3.8672   -9.7614    0.0000 C   0  0
    2.5644  -10.5048    0.0000 C   0  0
    1.2692   -9.7483    0.0000 C   0  0
    1.2767   -8.2483    0.0000 C   0  0
    2.5568  -12.0055    0.0000 N   0  0
    3.8509  -12.7642    0.0000 C   0  0
    3.8409  -14.2642    0.0000 C   0  0
    2.5370  -15.0056    0.0000 N   0  0
    1.2429  -14.2470    0.0000 C   0  0
    1.2529  -12.7470    0.0000 C   0  0
    2.5290  -16.2056    0.0000 C   0  0
    5.1954   -3.0153    0.0000 O   0  0
    6.2317   -3.6204    0.0000 C   0  0
   -2.3383    1.3500    0.0000 Cl  0  0
    0.0120    6.0044    0.0000 C   0  0
   -1.0251    6.6080    0.0000 N   0  0
  1  2  1  0
  2  3  2  0
  3  4  1  0
  4  5  2  0
  5  6  1  0
  1  6  2  0
  1  7  1  0
  3  8  1  0
  9 10  1  0
 10 11  2  0
 11 12  1  0
 12 13  2  0
 13 14  1  0
  9 14  2  0
  8  9  1  0
 15 16  1  0
 16 17  2  0
 17 18  1  0
 18 19  2  0
 19 20  1  0
 15 20  2  0
 21 22  1  0
 22 23  1  0
 23 24  1  0
 24 25  1  0
 25 26  1  0
 21 26  1  0
 27 28  1  0
 28 29  1  0
 29 30  1  0
 30 31  1  0
 31 32  1  0
 27 32  1  0
 30 33  1  0
 24 27  1  0
 18 21  1  0
 34 35  1  0
 16 34  1  0
  7 15  1  0
  4 36  1  0
 37 38  3  0
 10 37  1  0
M  END
> <From>
www.bindingDB.org

> <BindingDB Reactant_set_id>
50506516

> <Ligand InChI>
InChI=1S/C28H33ClN8O/c1-35-13-15-37(16-14-35)21-9-11-36(12-10-21)22-7-8-25(26(17-22)38-2)33-28-31-19-23(29)27(34-28)32-24-6-4-3-5-20(24)18-30/h3-8,17,19,21H,9-16H2,1-2H3,(H2,31,32,33,34)

> <Ligand InChI Key>
WDRXGELIQZMTRU-UHFFFAOYSA-N

> <BindingDB MonomerID>
50185165

> <BindingDB Ligand Name>
CHEMBL3823864

> <Target Name Assigned by Curator or DataSource>
ALK tyrosine kinase receptor

> <Target Source Organism According to Curator or DataSource>
Homo sapiens

> <Ki (nM)>


> <IC50 (nM)>
 1.9

> <Kd (nM)>


> <EC50 (nM)>


> <kon (M-1-s-1)>


> <koff (s-1)>


> <pH>


> <Temp C>


> <Curation/DataSource>
ChEMBL

> <Article DOI>
10.1021/acs.jmedchem.6b00306

> <PMID>
27144831

> <PubChem AID>


> <Patent Number>


> <Authors>
Huang, WS; Liu, S; Zou, D; Thomas, M; Wang, Y; Zhou, T; Romero, J; Kohlmann, A; Li, F; Qi, J; Cai, L; Dwight, TA; Xu, Y; Xu, R; Dodd, R; Toms, A; Parillon, L; Lu, X; Anjum, R; Zhang, S; Wang, F; Keats, J; Wardwell, SD; Ning, Y; Xu, Q; Moran, LE; Mohemmad, QK; Jang, HG; Clackson, T; Narasimhan, NI; Rivera, VM; Zhu, X; Dalgarno, D; Shakespeare, WC

> <Institution>
ARIAD Pharmaceuticals, Inc.

> <Link to Ligand in BindingDB>
http://www.bindingdb.org/bind/chemsearch/marvin/MolStructure.jsp?monomerid=50185165

> <Link to Ligand-Target Pair in BindingDB>
http://www.bindingdb.org/jsp/dbsearch/PrimarySearch_ki.jsp?energyterm=kJ/mole&tag=pol&polymerid=5809&target=ALK+tyrosine+kinase+receptor&column=ki&startPg=0&Increment=50&submit=Search

> <Link to Ligand-Target Pair in BindingDB>
http://www.bindingdb.org/jsp/dbsearch/PrimarySearch_ki.jsp?energyterm=kJ/mole&tag=r21&monomerid=50185165&enzyme=ALK+tyrosine+kinase+receptor&column=ki&startPg=0&Increment=50&submit=Search

> <Ligand HET ID in PDB>


> <PDB ID(s) for Ligand-Target Complex>


> <PubChem CID>
127049147

> <PubChem SID>
346550521

> <ChEBI ID of Ligand>


> <ChEMBL ID of Ligand>
CHEMBL3823864

> <DrugBank ID of Ligand>


> <IUPHAR_GRAC ID of Ligand>


> <KEGG ID of Ligand>


> <ZINC ID of Ligand>


> <Number of Protein Chains in Target (>1 implies a multichain complex)>
1

> <BindingDB Target Chain Sequence>
MGAIGLLWLLPLLLSTAAVGSGMGTGQRAGSPAAGPPLQPREPLSYSRLQRKSLAVDFVVPSLFRVYARDLLLPPSSSELKAGRPEARGSLALDCAPLLRLLGPAPGVSWTAGSPAPAEARTLSRVLKGGSVRKLRRAKQLVLELGEEAILEGCVGPPGEAAVGLLQFNLSELFSWWIRQGEGRLRIRLMPEKKASEVGREGRLSAAIRASQPRLLFQIFGTGHSSLESPTNMPSPSPDYFTWNLTWIMKDSFPFLSHRSRYGLECSFDFPCELEYSPPLHDLRNQSWSWRRIPSEEASQMDLLDGPGAERSKEMPRGSFLLLNTSADSKHTILSPWMRSSSEHCTLAVSVHRHLQPSGRYIAQLLPHNEAAREILLMPTPGKHGWTVLQGRIGRPDNPFRVALEYISSGNRSLSAVDFFALKNCSEGTSPGSKMALQSSFTCWNGTVLQLGQACDFHQDCAQGEDESQMCRKLPVGFYCNFEDGFCGWTQGTLSPHTPQWQVRTLKDARFQDHQDHALLLSTTDVPASESATVTSATFPAPIKSSPCELRMSWLIRGVLRGNVSLVLVENKTGKEQGRMVWHVAAYEGLSLWQWMVLPLLDVSDRFWLQMVAWWGQGSRAIVAFDNISISLDCYLTISGEDKILQNTAPKSRNLFERNPNKELKPGENSPRQTPIFDPTVHWLFTTCGASGPHGPTQAQCNNAYQNSNLSVEVGSEGPLKGIQIWKVPATDTYSISGYGAAGGKGGKNTMMRSHGVSVLGIFNLEKDDMLYILVGQQGEDACPSTNQLIQKVCIGENNVIEEEIRVNRSVHEWAGGGGGGGGATYVFKMKDGVPVPLIIAAGGGGRAYGAKTDTFHPERLENNSSVLGLNGNSGAAGGGGGWNDNTSLLWAGKSLQEGATGGHSCPQAMKKWGWETRGGFGGGGGGCSSGGGGGGYIGGNAASNNDPEMDGEDGVSFISPLGILYTPALKVMEGHGEVNIKHYLNCSHCEVDECHMDPESHKVICFCDHGTVLAEDGVSCIVSPTPEPHLPLSLILSVVTSALVAALVLAFSGIMIVYRRKHQELQAMQMELQSPEYKLSKLRTSTIMTDYNPNYCFAGKTSSISDLKEVPRKNITLIRGLGHGAFGEVYEGQVSGMPNDPSPLQVAVKTLPEVCSEQDELDFLMEALIISKFNHQNIVRCIGVSLQSLPRFILLELMAGGDLKSFLRETRPRPSQPSSLAMLDLLHVARDIACGCQYLEENHFIHRDIAARNCLLTCPGPGRVAKIGDFGMARDIYRASYYRKGGCAMLPVKWMPPEAFMEGIFTSKTDTWSFGVLLWEIFSLGYMPYPSKSNQEVLEFVTSGGRMDPPKNCPGPVYRIMTQCWQHQPEDRPNFAIILERIEYCTQDPDVINTALPIEYGPLVEEEEKVPVRPKDPEGVPPLLVSQQAKREEERSPAAPPPLPTTSSGKAAKKPTAAEISVRVPRGPAVEGGHVNMAFSQSNPPSELHKVHGSRNKPTSLWNPTYGSWFTEKPTKKNNPIAKKEPHDRGNLGLEGSCTVPPNVATGRLPGASLLLEPSSLTANMKEVPLFRLRHFPCGNVNYGYQQQGLPLEAATAPGAGHYEDTILKSKNSMNQPGP

> <PDB ID(s) of Target Chain>
2XB7,2XBA,3AOX,5FTO,5FTQ,6E0R,6EBW,6EDL,6MX8

> <UniProt (SwissProt) Recommended Name of Target Chain>
ALK tyrosine kinase receptor

> <UniProt (SwissProt) Entry Name of Target Chain>
ALK_HUMAN

> <UniProt (SwissProt) Primary ID of Target Chain>
Q9UM73

> <UniProt (SwissProt) Secondary ID(s) of Target Chain>
Q4ZFX9,Q53QQ6,Q53RZ4,Q59FI3,Q9Y4K6

> <UniProt (SwissProt) Alternative ID(s) of Target Chain>


> <UniProt (TrEMBL) Submitted Name of Target Chain>


> <UniProt (TrEMBL) Entry Name of Target Chain>


> <UniProt (TrEMBL) Primary ID of Target Chain>


> <UniProt (TrEMBL) Secondary ID(s) of Target Chain>


> <UniProt (TrEMBL) Alternative ID(s) of Target Chain>


$$$$

  SciTegic12211613482D

 37 41  0  0  0  0            999 V2000
    1.2990   -0.7500    0.0000 C   0  0
    1.2990    0.7500    0.0000 N   0  0
    0.0000    1.5000    0.0000 C   0  0
   -1.2990    0.7500    0.0000 C   0  0
   -1.2990   -0.7500    0.0000 C   0  0
    0.0000   -1.5000    0.0000 N   0  0
    2.5973   -1.5031    0.0000 N   0  0
    0.0031    3.0008    0.0000 N   0  0
    1.3039    3.7494    0.0000 C   0  0
    1.3092    5.2494    0.0000 C   0  0
    2.6108    5.9949    0.0000 C   0  0
    3.9072    5.2405    0.0000 C   0  0
    3.9020    3.7405    0.0000 C   0  0
    2.6004    2.9949    0.0000 C   0  0
    2.5951   -3.0039    0.0000 C   0  0
    3.8915   -3.7585    0.0000 C   0  0
    3.8864   -5.2585    0.0000 C   0  0
    2.5847   -6.0040    0.0000 C   0  0
    1.2883   -5.2495    0.0000 C   0  0
    1.2935   -3.7495    0.0000 C   0  0
    2.5795   -7.5047    0.0000 N   0  0
    3.8748   -8.2614    0.0000 C   0  0
    3.8672   -9.7614    0.0000 C   0  0
    2.5644  -10.5048    0.0000 C   0  0
    1.2692   -9.7483    0.0000 C   0  0
    1.2767   -8.2483    0.0000 C   0  0
    2.5568  -12.0055    0.0000 N   0  0
    3.8509  -12.7642    0.0000 C   0  0
    3.8409  -14.2642    0.0000 C   0  0
    2.5370  -15.0056    0.0000 N   0  0
    1.2429  -14.2470    0.0000 C   0  0
    1.2529  -12.7470    0.0000 C   0  0
    2.5290  -16.2056    0.0000 C   0  0
    5.1954   -3.0153    0.0000 O   0  0
    6.2317   -3.6204    0.0000 C   0  0
   -2.3383    1.3500    0.0000 Cl  0  0
    0.2720    5.8530    0.0000 I   0  0
  1  2  1  0
  2  3  2  0
  3  4  1  0
  4  5  2  0
  5  6  1  0
  1  6  2  0
  1  7  1  0
  3  8  1  0
  9 10  1  0
 10 11  2  0
 11 12  1  0
 12 13  2  0
 13 14  1  0
  9 14  2  0
  8  9  1  0
 15 16  1  0
 16 17  2  0
 17 18  1  0
 18 19  2  0
 19 20  1  0
 15 20  2  0
 21 22  1  0
 22 23  1  0
 23 24  1  0
 24 25  1  0
 25 26  1  0
 21 26  1  0
 27 28  1  0
 28 29  1  0
 29 30  1  0
 30 31  1  0
 31 32  1  0
 27 32  1  0
 30 33  1  0
 24 27  1  0
 18 21  1  0
 34 35  1  0
 16 34  1  0
  7 15  1  0
  4 36  1  0
 10 37  1  0
M  END
> <From>
www.bindingDB.org

> <BindingDB Reactant_set_id>
50506517

> <Ligand InChI>
InChI=1S/C27H33ClIN7O/c1-34-13-15-36(16-14-34)19-9-11-35(12-10-19)20-7-8-24(25(17-20)37-2)32-27-30-18-21(28)26(33-27)31-23-6-4-3-5-22(23)29/h3-8,17-19H,9-16H2,1-2H3,(H2,30,31,32,33)

> <Ligand InChI Key>
IDRQGRCXNROMMS-UHFFFAOYSA-N

> <BindingDB MonomerID>
50185166

> <BindingDB Ligand Name>
CHEMBL3822664

> <Target Name Assigned by Curator or DataSource>
ALK tyrosine kinase receptor

> <Target Source Organism According to Curator or DataSource>
Homo sapiens

> <Ki (nM)>


> <IC50 (nM)>
 1.4

> <Kd (nM)>


> <EC50 (nM)>


> <kon (M-1-s-1)>


> <koff (s-1)>


> <pH>


> <Temp C>


> <Curation/DataSource>
ChEMBL

> <Article DOI>
10.1021/acs.jmedchem.6b00306

> <PMID>
27144831

> <PubChem AID>


> <Patent Number>


> <Authors>
Huang, WS; Liu, S; Zou, D; Thomas, M; Wang, Y; Zhou, T; Romero, J; Kohlmann, A; Li, F; Qi, J; Cai, L; Dwight, TA; Xu, Y; Xu, R; Dodd, R; Toms, A; Parillon, L; Lu, X; Anjum, R; Zhang, S; Wang, F; Keats, J; Wardwell, SD; Ning, Y; Xu, Q; Moran, LE; Mohemmad, QK; Jang, HG; Clackson, T; Narasimhan, NI; Rivera, VM; Zhu, X; Dalgarno, D; Shakespeare, WC

> <Institution>
ARIAD Pharmaceuticals, Inc.

> <Link to Ligand in BindingDB>
http://www.bindingdb.org/bind/chemsearch/marvin/MolStructure.jsp?monomerid=50185166

> <Link to Ligand-Target Pair in BindingDB>
http://www.bindingdb.org/jsp/dbsearch/PrimarySearch_ki.jsp?energyterm=kJ/mole&tag=pol&polymerid=5809&target=ALK+tyrosine+kinase+receptor&column=ki&startPg=0&Increment=50&submit=Search

> <Link to Ligand-Target Pair in BindingDB>
http://www.bindingdb.org/jsp/dbsearch/PrimarySearch_ki.jsp?energyterm=kJ/mole&tag=r21&monomerid=50185166&enzyme=ALK+tyrosine+kinase+receptor&column=ki&startPg=0&Increment=50&submit=Search

> <Ligand HET ID in PDB>


> <PDB ID(s) for Ligand-Target Complex>


> <PubChem CID>
68165424

> <PubChem SID>
346550522

> <ChEBI ID of Ligand>


> <ChEMBL ID of Ligand>
CHEMBL3822664

> <DrugBank ID of Ligand>


> <IUPHAR_GRAC ID of Ligand>


> <KEGG ID of Ligand>


> <ZINC ID of Ligand>


> <Number of Protein Chains in Target (>1 implies a multichain complex)>
1

> <BindingDB Target Chain Sequence>
MGAIGLLWLLPLLLSTAAVGSGMGTGQRAGSPAAGPPLQPREPLSYSRLQRKSLAVDFVVPSLFRVYARDLLLPPSSSELKAGRPEARGSLALDCAPLLRLLGPAPGVSWTAGSPAPAEARTLSRVLKGGSVRKLRRAKQLVLELGEEAILEGCVGPPGEAAVGLLQFNLSELFSWWIRQGEGRLRIRLMPEKKASEVGREGRLSAAIRASQPRLLFQIFGTGHSSLESPTNMPSPSPDYFTWNLTWIMKDSFPFLSHRSRYGLECSFDFPCELEYSPPLHDLRNQSWSWRRIPSEEASQMDLLDGPGAERSKEMPRGSFLLLNTSADSKHTILSPWMRSSSEHCTLAVSVHRHLQPSGRYIAQLLPHNEAAREILLMPTPGKHGWTVLQGRIGRPDNPFRVALEYISSGNRSLSAVDFFALKNCSEGTSPGSKMALQSSFTCWNGTVLQLGQACDFHQDCAQGEDESQMCRKLPVGFYCNFEDGFCGWTQGTLSPHTPQWQVRTLKDARFQDHQDHALLLSTTDVPASESATVTSATFPAPIKSSPCELRMSWLIRGVLRGNVSLVLVENKTGKEQGRMVWHVAAYEGLSLWQWMVLPLLDVSDRFWLQMVAWWGQGSRAIVAFDNISISLDCYLTISGEDKILQNTAPKSRNLFERNPNKELKPGENSPRQTPIFDPTVHWLFTTCGASGPHGPTQAQCNNAYQNSNLSVEVGSEGPLKGIQIWKVPATDTYSISGYGAAGGKGGKNTMMRSHGVSVLGIFNLEKDDMLYILVGQQGEDACPSTNQLIQKVCIGENNVIEEEIRVNRSVHEWAGGGGGGGGATYVFKMKDGVPVPLIIAAGGGGRAYGAKTDTFHPERLENNSSVLGLNGNSGAAGGGGGWNDNTSLLWAGKSLQEGATGGHSCPQAMKKWGWETRGGFGGGGGGCSSGGGGGGYIGGNAASNNDPEMDGEDGVSFISPLGILYTPALKVMEGHGEVNIKHYLNCSHCEVDECHMDPESHKVICFCDHGTVLAEDGVSCIVSPTPEPHLPLSLILSVVTSALVAALVLAFSGIMIVYRRKHQELQAMQMELQSPEYKLSKLRTSTIMTDYNPNYCFAGKTSSISDLKEVPRKNITLIRGLGHGAFGEVYEGQVSGMPNDPSPLQVAVKTLPEVCSEQDELDFLMEALIISKFNHQNIVRCIGVSLQSLPRFILLELMAGGDLKSFLRETRPRPSQPSSLAMLDLLHVARDIACGCQYLEENHFIHRDIAARNCLLTCPGPGRVAKIGDFGMARDIYRASYYRKGGCAMLPVKWMPPEAFMEGIFTSKTDTWSFGVLLWEIFSLGYMPYPSKSNQEVLEFVTSGGRMDPPKNCPGPVYRIMTQCWQHQPEDRPNFAIILERIEYCTQDPDVINTALPIEYGPLVEEEEKVPVRPKDPEGVPPLLVSQQAKREEERSPAAPPPLPTTSSGKAAKKPTAAEISVRVPRGPAVEGGHVNMAFSQSNPPSELHKVHGSRNKPTSLWNPTYGSWFTEKPTKKNNPIAKKEPHDRGNLGLEGSCTVPPNVATGRLPGASLLLEPSSLTANMKEVPLFRLRHFPCGNVNYGYQQQGLPLEAATAPGAGHYEDTILKSKNSMNQPGP

> <PDB ID(s) of Target Chain>
2XB7,2XBA,3AOX,5FTO,5FTQ,6E0R,6EBW,6EDL,6MX8

> <UniProt (SwissProt) Recommended Name of Target Chain>
ALK tyrosine kinase receptor

> <UniProt (SwissProt) Entry Name of Target Chain>
ALK_HUMAN

> <UniProt (SwissProt) Primary ID of Target Chain>
Q9UM73

> <UniProt (SwissProt) Secondary ID(s) of Target Chain>
Q4ZFX9,Q53QQ6,Q53RZ4,Q59FI3,Q9Y4K6

> <UniProt (SwissProt) Alternative ID(s) of Target Chain>


> <UniProt (TrEMBL) Submitted Name of Target Chain>


> <UniProt (TrEMBL) Entry Name of Target Chain>


> <UniProt (TrEMBL) Primary ID of Target Chain>


> <UniProt (TrEMBL) Secondary ID(s) of Target Chain>


> <UniProt (TrEMBL) Alternative ID(s) of Target Chain>


$$$$
BindingDB_50185196_mol_1

Vconf v2.0 Academic SN VC001-00000579
 48 51  0  0  0  0  0  0  0  0999 V2000
    9.9230    1.3400    1.4360 C   0  0  0  0  0  0  0  0  0  0  0
    9.3950    0.7560    2.6340 C   0  0  0  0  0  0  0  0  0  0  0
    8.0760    0.5510    2.6880 C   0  0  0  0  0  0  0  0  0  0  0
    9.3520    0.6190    0.1990 C   0  0  0  0  0  0  0  0  0  0  0
    7.9910    0.1060    0.3620 C   0  0  0  0  0  0  0  0  0  0  0
    7.3730    0.2780    1.5780 C   0  0  0  0  0  0  0  0  0  0  0
    5.9340    0.1860    1.7280 C   0  0  0  0  0  0  0  0  0  0  0
    5.2250   -0.1090    0.3980 C   0  0  0  0  0  0  0  0  0  0  0
    7.3700   -0.5420   -0.6530 C   0  0  0  0  0  0  0  0  0  0  0
    6.0430   -1.1340   -0.4160 C   0  0  2  0  0  0  0  0  0  0  0
    7.3910   -1.1830   -2.9790 C   0  0  0  0  0  0  0  0  0  0  0
    7.9320   -0.5800   -1.9100 C   0  0  0  0  0  0  0  0  0  0  0
    6.1920   -1.9710   -2.8670 C   0  0  1  0  0  0  0  0  0  0  0
    5.3240   -1.3230   -1.7740 C   0  0  1  0  0  0  0  0  0  0  0
    3.9960   -2.0760   -1.8580 C   0  0  0  0  0  0  0  0  0  0  0
    3.8390   -2.3270   -3.3730 C   0  0  0  0  0  0  0  0  0  0  0
    5.1840   -1.9580   -4.0490 C   0  0  2  0  0  0  0  0  0  0  0
   10.1090    0.5300    3.5980 O   0  0  0  0  0  0  0  0  0  0  0
    6.1080   -2.4410    0.4180 C   0  0  0  0  0  0  0  0  0  0  0
    5.4990   -2.9190   -5.0510 O   0  0  0  0  0  0  0  0  0  0  0
    5.0810   -0.6000   -4.7760 C   0  0  0  0  0  0  0  0  0  0  0
    6.6450   -3.4310   -2.6040 C   0  0  0  0  0  0  0  0  0  0  0
   11.0130    1.2880    1.4320 H   0  0  0  0  0  0  0  0  0  0  0
    9.6200    2.3880    1.4010 H   0  0  0  0  0  0  0  0  0  0  0
    7.6130    0.6290    3.5610 H   0  0  0  0  0  0  0  0  0  0  0
    9.3830    1.3300   -0.6280 H   0  0  0  0  0  0  0  0  0  0  0
   10.0100   -0.2210   -0.0330 H   0  0  0  0  0  0  0  0  0  0  0
    5.6970   -0.6080    2.4380 H   0  0  0  0  0  0  0  0  0  0  0
    5.5480    1.1270    2.1220 H   0  0  0  0  0  0  0  0  0  0  0
    4.2250   -0.4950    0.5990 H   0  0  0  0  0  0  0  0  0  0  0
    5.1330    0.8220   -0.1640 H   0  0  0  0  0  0  0  0  0  0  0
    7.8700   -1.1560   -3.8460 H   0  0  0  0  0  0  0  0  0  0  0
    8.7870   -0.1140   -2.0790 H   0  0  0  0  0  0  0  0  0  0  0
    5.0970   -0.3080   -2.1060 H   0  0  0  0  0  0  0  0  0  0  0
    4.0480   -3.0230   -1.3220 H   0  0  0  0  0  0  0  0  0  0  0
    3.1770   -1.4680   -1.4720 H   0  0  0  0  0  0  0  0  0  0  0
    3.6150   -3.3810   -3.5370 H   0  0  0  0  0  0  0  0  0  0  0
    3.0250   -1.7210   -3.7730 H   0  0  0  0  0  0  0  0  0  0  0
    6.5810   -3.2490   -0.1210 H   0  0  0  0  0  0  0  0  0  0  0
    6.6770   -2.2870    1.3340 H   0  0  0  0  0  0  0  0  0  0  0
    5.0990   -2.7520    0.6880 H   0  0  0  0  0  0  0  0  0  0  0
    4.8430   -2.9750   -5.7770 H   0  0  0  0  0  0  0  0  0  0  0
    4.3480   -0.6780   -5.5800 H   0  0  0  0  0  0  0  0  0  0  0
    4.7670    0.1900   -4.0970 H   0  0  0  0  0  0  0  0  0  0  0
    6.0460   -0.3380   -5.2080 H   0  0  0  0  0  0  0  0  0  0  0
    5.8200   -4.0290   -2.2200 H   0  0  0  0  0  0  0  0  0  0  0
    6.9980   -3.8820   -3.5310 H   0  0  0  0  0  0  0  0  0  0  0
    7.4770   -3.4620   -1.9030 H   0  0  0  0  0  0  0  0  0  0  0
  1  2  1  0  0  0  0
  1  4  1  0  0  0  0
  1 23  1  0  0  0  0
  1 24  1  0  0  0  0
  2  3  1  0  0  0  0
  2 18  2  0  0  0  0
  3  6  2  0  0  0  0
  3 25  1  0  0  0  0
  4  5  1  0  0  0  0
  4 26  1  0  0  0  0
  4 27  1  0  0  0  0
  5  6  1  0  0  0  0
  5  9  2  0  0  0  0
  6  7  1  0  0  0  0
  7  8  1  0  0  0  0
  7 28  1  0  0  0  0
  7 29  1  0  0  0  0
  8 10  1  0  0  0  0
  8 30  1  0  0  0  0
  8 31  1  0  0  0  0
  9 10  1  0  0  0  0
  9 12  1  0  0  0  0
 10 14  1  0  0  0  0
 10 19  1  1  0  0  0
 11 12  2  0  0  0  0
 11 13  1  0  0  0  0
 11 32  1  0  0  0  0
 12 33  1  0  0  0  0
 13 14  1  0  0  0  0
 13 17  1  0  0  0  0
 13 22  1  1  0  0  0
 14 15  1  1  0  0  0
 14 34  1  0  0  0  0
 15 16  1  0  0  0  0
 15 35  1  0  0  0  0
 15 36  1  0  0  0  0
 16 17  1  0  0  0  0
 16 37  1  0  0  0  0
 16 38  1  0  0  0  0
 17 20  1  1  0  0  0
 17 21  1  6  0  0  0
 19 39  1  0  0  0  0
 19 40  1  0  0  0  0
 19 41  1  0  0  0  0
 20 42  1  0  0  0  0
 21 43  1  0  0  0  0
 21 44  1  0  0  0  0
 21 45  1  0  0  0  0
 22 46  1  0  0  0  0
 22 47  1  0  0  0  0
 22 48  1  0  0  0  0
M  END
> <From>
www.bindingDB.org

> <BindingDB Reactant_set_id>
50506518

> <Ligand InChI>
InChI=1S/C27H34ClN7O/c1-33-14-16-35(17-15-33)21-10-12-34(13-11-21)22-8-9-24(25(18-22)36-2)31-27-29-19-23(28)26(32-27)30-20-6-4-3-5-7-20/h3-9,18-19,21H,10-17H2,1-2H3,(H2,29,30,31,32)

> <Ligand InChI Key>
DEBFWFAAIWZWSH-UHFFFAOYSA-N

> <BindingDB MonomerID>
50185196

> <BindingDB Ligand Name>
CHEMBL3824185

> <Target Name Assigned by Curator or DataSource>
ALK tyrosine kinase receptor

> <Target Source Organism According to Curator or DataSource>
Homo sapiens

> <Ki (nM)>


> <IC50 (nM)>
 9.9

> <Kd (nM)>


> <EC50 (nM)>


> <kon (M-1-s-1)>


> <koff (s-1)>


> <pH>


> <Temp C>


> <Curation/DataSource>
ChEMBL

> <Article DOI>
10.1021/acs.jmedchem.6b00306

> <PMID>
27144831

> <PubChem AID>


> <Patent Number>


> <Authors>
Huang, WS; Liu, S; Zou, D; Thomas, M; Wang, Y; Zhou, T; Romero, J; Kohlmann, A; Li, F; Qi, J; Cai, L; Dwight, TA; Xu, Y; Xu, R; Dodd, R; Toms, A; Parillon, L; Lu, X; Anjum, R; Zhang, S; Wang, F; Keats, J; Wardwell, SD; Ning, Y; Xu, Q; Moran, LE; Mohemmad, QK; Jang, HG; Clackson, T; Narasimhan, NI; Rivera, VM; Zhu, X; Dalgarno, D; Shakespeare, WC

> <Institution>
ARIAD Pharmaceuticals, Inc.

> <Link to Ligand in BindingDB>
http://www.bindingdb.org/bind/chemsearch/marvin/MolStructure.jsp?monomerid=50185196

> <Link to Ligand-Target Pair in BindingDB>
http://www.bindingdb.org/jsp/dbsearch/PrimarySearch_ki.jsp?energyterm=kJ/mole&tag=pol&polymerid=5809&target=ALK+tyrosine+kinase+receptor&column=ki&startPg=0&Increment=50&submit=Search

> <Link to Ligand-Target Pair in BindingDB>
http://www.bindingdb.org/jsp/dbsearch/PrimarySearch_ki.jsp?energyterm=kJ/mole&tag=r21&monomerid=50185196&enzyme=ALK+tyrosine+kinase+receptor&column=ki&startPg=0&Increment=50&submit=Search

> <Ligand HET ID in PDB>


> <PDB ID(s) for Ligand-Target Complex>


> <PubChem CID>
127052979

> <PubChem SID>
104069424

> <ChEBI ID of Ligand>


> <ChEMBL ID of Ligand>
CHEMBL3824185

> <DrugBank ID of Ligand>


> <IUPHAR_GRAC ID of Ligand>


> <KEGG ID of Ligand>


> <ZINC ID of Ligand>
ZINC34801478

> <Number of Protein Chains in Target (>1 implies a multichain complex)>
1

> <BindingDB Target Chain Sequence>
MGAIGLLWLLPLLLSTAAVGSGMGTGQRAGSPAAGPPLQPREPLSYSRLQRKSLAVDFVVPSLFRVYARDLLLPPSSSELKAGRPEARGSLALDCAPLLRLLGPAPGVSWTAGSPAPAEARTLSRVLKGGSVRKLRRAKQLVLELGEEAILEGCVGPPGEAAVGLLQFNLSELFSWWIRQGEGRLRIRLMPEKKASEVGREGRLSAAIRASQPRLLFQIFGTGHSSLESPTNMPSPSPDYFTWNLTWIMKDSFPFLSHRSRYGLECSFDFPCELEYSPPLHDLRNQSWSWRRIPSEEASQMDLLDGPGAERSKEMPRGSFLLLNTSADSKHTILSPWMRSSSEHCTLAVSVHRHLQPSGRYIAQLLPHNEAAREILLMPTPGKHGWTVLQGRIGRPDNPFRVALEYISSGNRSLSAVDFFALKNCSEGTSPGSKMALQSSFTCWNGTVLQLGQACDFHQDCAQGEDESQMCRKLPVGFYCNFEDGFCGWTQGTLSPHTPQWQVRTLKDARFQDHQDHALLLSTTDVPASESATVTSATFPAPIKSSPCELRMSWLIRGVLRGNVSLVLVENKTGKEQGRMVWHVAAYEGLSLWQWMVLPLLDVSDRFWLQMVAWWGQGSRAIVAFDNISISLDCYLTISGEDKILQNTAPKSRNLFERNPNKELKPGENSPRQTPIFDPTVHWLFTTCGASGPHGPTQAQCNNAYQNSNLSVEVGSEGPLKGIQIWKVPATDTYSISGYGAAGGKGGKNTMMRSHGVSVLGIFNLEKDDMLYILVGQQGEDACPSTNQLIQKVCIGENNVIEEEIRVNRSVHEWAGGGGGGGGATYVFKMKDGVPVPLIIAAGGGGRAYGAKTDTFHPERLENNSSVLGLNGNSGAAGGGGGWNDNTSLLWAGKSLQEGATGGHSCPQAMKKWGWETRGGFGGGGGGCSSGGGGGGYIGGNAASNNDPEMDGEDGVSFISPLGILYTPALKVMEGHGEVNIKHYLNCSHCEVDECHMDPESHKVICFCDHGTVLAEDGVSCIVSPTPEPHLPLSLILSVVTSALVAALVLAFSGIMIVYRRKHQELQAMQMELQSPEYKLSKLRTSTIMTDYNPNYCFAGKTSSISDLKEVPRKNITLIRGLGHGAFGEVYEGQVSGMPNDPSPLQVAVKTLPEVCSEQDELDFLMEALIISKFNHQNIVRCIGVSLQSLPRFILLELMAGGDLKSFLRETRPRPSQPSSLAMLDLLHVARDIACGCQYLEENHFIHRDIAARNCLLTCPGPGRVAKIGDFGMARDIYRASYYRKGGCAMLPVKWMPPEAFMEGIFTSKTDTWSFGVLLWEIFSLGYMPYPSKSNQEVLEFVTSGGRMDPPKNCPGPVYRIMTQCWQHQPEDRPNFAIILERIEYCTQDPDVINTALPIEYGPLVEEEEKVPVRPKDPEGVPPLLVSQQAKREEERSPAAPPPLPTTSSGKAAKKPTAAEISVRVPRGPAVEGGHVNMAFSQSNPPSELHKVHGSRNKPTSLWNPTYGSWFTEKPTKKNNPIAKKEPHDRGNLGLEGSCTVPPNVATGRLPGASLLLEPSSLTANMKEVPLFRLRHFPCGNVNYGYQQQGLPLEAATAPGAGHYEDTILKSKNSMNQPGP

> <PDB ID(s) of Target Chain>
2XB7,2XBA,3AOX,5FTO,5FTQ,6E0R,6EBW,6EDL,6MX8

> <UniProt (SwissProt) Recommended Name of Target Chain>
ALK tyrosine kinase receptor

> <UniProt (SwissProt) Entry Name of Target Chain>
ALK_HUMAN

> <UniProt (SwissProt) Primary ID of Target Chain>
Q9UM73

> <UniProt (SwissProt) Secondary ID(s) of Target Chain>
Q4ZFX9,Q53QQ6,Q53RZ4,Q59FI3,Q9Y4K6

> <UniProt (SwissProt) Alternative ID(s) of Target Chain>


> <UniProt (TrEMBL) Submitted Name of Target Chain>


> <UniProt (TrEMBL) Entry Name of Target Chain>


> <UniProt (TrEMBL) Primary ID of Target Chain>


> <UniProt (TrEMBL) Secondary ID(s) of Target Chain>


> <UniProt (TrEMBL) Alternative ID(s) of Target Chain>


$$$$

  SciTegic12211613472D

 42 46  0  0  0  0            999 V2000
    1.2990   -0.7500    0.0000 C   0  0
    1.2990    0.7500    0.0000 N   0  0
    0.0000    1.5000    0.0000 C   0  0
   -1.2990    0.7500    0.0000 C   0  0
   -1.2990   -0.7500    0.0000 C   0  0
    0.0000   -1.5000    0.0000 N   0  0
    2.5973   -1.5031    0.0000 N   0  0
    0.0031    3.0008    0.0000 N   0  0
    2.5951   -3.0039    0.0000 C   0  0
    3.8915   -3.7585    0.0000 C   0  0
    3.8864   -5.2585    0.0000 C   0  0
    2.5847   -6.0040    0.0000 C   0  0
    1.2883   -5.2495    0.0000 C   0  0
    1.2935   -3.7495    0.0000 C   0  0
    2.5795   -7.5047    0.0000 N   0  0
    3.8748   -8.2614    0.0000 C   0  0
    3.8672   -9.7614    0.0000 C   0  0
    2.5644  -10.5048    0.0000 C   0  0
    1.2692   -9.7483    0.0000 C   0  0
    1.2767   -8.2483    0.0000 C   0  0
    2.5568  -12.0055    0.0000 N   0  0
    3.8509  -12.7642    0.0000 C   0  0
    3.8409  -14.2642    0.0000 C   0  0
    2.5370  -15.0056    0.0000 N   0  0
    1.2429  -14.2470    0.0000 C   0  0
    1.2529  -12.7470    0.0000 C   0  0
    2.5290  -16.2056    0.0000 C   0  0
    5.1954   -3.0153    0.0000 O   0  0
    6.4915   -3.7721    0.0000 C   0  0
    1.3039    3.7494    0.0000 C   0  0
    1.3092    5.2494    0.0000 C   0  0
    2.6108    5.9949    0.0000 C   0  0
    3.9072    5.2405    0.0000 C   0  0
    3.9020    3.7405    0.0000 C   0  0
    2.6004    2.9949    0.0000 C   0  0
    0.0120    6.0044    0.0000 P   0  0
   -1.0297    5.4087    0.0000 O   0  0
    0.0166    7.2044    0.0000 C   0  0
   -1.0248    6.6085    0.0000 C   0  0
   -2.3383    1.3500    0.0000 Cl  0  0
    7.5340   -3.1779    0.0000 C   0  0
    6.4852   -4.9721    0.0000 C   0  0
  1  2  1  0
  2  3  2  0
  3  4  1  0
  4  5  2  0
  5  6  1  0
  1  6  2  0
  1  7  1  0
  3  8  1  0
  9 10  1  0
 10 11  2  0
 11 12  1  0
 12 13  2  0
 13 14  1  0
  9 14  2  0
 15 16  1  0
 16 17  1  0
 17 18  1  0
 18 19  1  0
 19 20  1  0
 15 20  1  0
 21 22  1  0
 22 23  1  0
 23 24  1  0
 24 25  1  0
 25 26  1  0
 21 26  1  0
 24 27  1  0
 18 21  1  0
 12 15  1  0
 28 29  1  0
 10 28  1  0
  7  9  1  0
 30 31  1  0
 31 32  2  0
 32 33  1  0
 33 34  2  0
 34 35  1  0
 30 35  2  0
 36 37  2  0
 36 38  1  0
 36 39  1  0
 31 36  1  0
  8 30  1  0
  4 40  1  0
 29 41  1  0
 29 42  1  0
M  END
> <From>
www.bindingDB.org

> <BindingDB Reactant_set_id>
50506520

> <Ligand InChI>
InChI=1S/C31H43ClN7O2P/c1-22(2)41-28-20-24(38-14-12-23(13-15-38)39-18-16-37(3)17-19-39)10-11-26(28)35-31-33-21-25(32)30(36-31)34-27-8-6-7-9-29(27)42(4,5)40/h6-11,20-23H,12-19H2,1-5H3,(H2,33,34,35,36)

> <Ligand InChI Key>
RPUSLEYUMRGACQ-UHFFFAOYSA-N

> <BindingDB MonomerID>
50185233

> <BindingDB Ligand Name>
CHEMBL3823224

> <Target Name Assigned by Curator or DataSource>
ALK tyrosine kinase receptor

> <Target Source Organism According to Curator or DataSource>
Homo sapiens

> <Ki (nM)>


> <IC50 (nM)>
 0.680000

> <Kd (nM)>


> <EC50 (nM)>


> <kon (M-1-s-1)>


> <koff (s-1)>


> <pH>


> <Temp C>


> <Curation/DataSource>
ChEMBL

> <Article DOI>
10.1021/acs.jmedchem.6b00306

> <PMID>
27144831

> <PubChem AID>


> <Patent Number>


> <Authors>
Huang, WS; Liu, S; Zou, D; Thomas, M; Wang, Y; Zhou, T; Romero, J; Kohlmann, A; Li, F; Qi, J; Cai, L; Dwight, TA; Xu, Y; Xu, R; Dodd, R; Toms, A; Parillon, L; Lu, X; Anjum, R; Zhang, S; Wang, F; Keats, J; Wardwell, SD; Ning, Y; Xu, Q; Moran, LE; Mohemmad, QK; Jang, HG; Clackson, T; Narasimhan, NI; Rivera, VM; Zhu, X; Dalgarno, D; Shakespeare, WC

> <Institution>
ARIAD Pharmaceuticals, Inc.

> <Link to Ligand in BindingDB>
http://www.bindingdb.org/bind/chemsearch/marvin/MolStructure.jsp?monomerid=50185233

> <Link to Ligand-Target Pair in BindingDB>
http://www.bindingdb.org/jsp/dbsearch/PrimarySearch_ki.jsp?energyterm=kJ/mole&tag=pol&polymerid=5809&target=ALK+tyrosine+kinase+receptor&column=ki&startPg=0&Increment=50&submit=Search

> <Link to Ligand-Target Pair in BindingDB>
http://www.bindingdb.org/jsp/dbsearch/PrimarySearch_ki.jsp?energyterm=kJ/mole&tag=r21&monomerid=50185233&enzyme=ALK+tyrosine+kinase+receptor&column=ki&startPg=0&Increment=50&submit=Search

> <Ligand HET ID in PDB>


> <PDB ID(s) for Ligand-Target Complex>


> <PubChem CID>
68165398

> <PubChem SID>
346550523

> <ChEBI ID of Ligand>


> <ChEMBL ID of Ligand>
CHEMBL3823224

> <DrugBank ID of Ligand>


> <IUPHAR_GRAC ID of Ligand>


> <KEGG ID of Ligand>


> <ZINC ID of Ligand>


> <Number of Protein Chains in Target (>1 implies a multichain complex)>
1

> <BindingDB Target Chain Sequence>
MGAIGLLWLLPLLLSTAAVGSGMGTGQRAGSPAAGPPLQPREPLSYSRLQRKSLAVDFVVPSLFRVYARDLLLPPSSSELKAGRPEARGSLALDCAPLLRLLGPAPGVSWTAGSPAPAEARTLSRVLKGGSVRKLRRAKQLVLELGEEAILEGCVGPPGEAAVGLLQFNLSELFSWWIRQGEGRLRIRLMPEKKASEVGREGRLSAAIRASQPRLLFQIFGTGHSSLESPTNMPSPSPDYFTWNLTWIMKDSFPFLSHRSRYGLECSFDFPCELEYSPPLHDLRNQSWSWRRIPSEEASQMDLLDGPGAERSKEMPRGSFLLLNTSADSKHTILSPWMRSSSEHCTLAVSVHRHLQPSGRYIAQLLPHNEAAREILLMPTPGKHGWTVLQGRIGRPDNPFRVALEYISSGNRSLSAVDFFALKNCSEGTSPGSKMALQSSFTCWNGTVLQLGQACDFHQDCAQGEDESQMCRKLPVGFYCNFEDGFCGWTQGTLSPHTPQWQVRTLKDARFQDHQDHALLLSTTDVPASESATVTSATFPAPIKSSPCELRMSWLIRGVLRGNVSLVLVENKTGKEQGRMVWHVAAYEGLSLWQWMVLPLLDVSDRFWLQMVAWWGQGSRAIVAFDNISISLDCYLTISGEDKILQNTAPKSRNLFERNPNKELKPGENSPRQTPIFDPTVHWLFTTCGASGPHGPTQAQCNNAYQNSNLSVEVGSEGPLKGIQIWKVPATDTYSISGYGAAGGKGGKNTMMRSHGVSVLGIFNLEKDDMLYILVGQQGEDACPSTNQLIQKVCIGENNVIEEEIRVNRSVHEWAGGGGGGGGATYVFKMKDGVPVPLIIAAGGGGRAYGAKTDTFHPERLENNSSVLGLNGNSGAAGGGGGWNDNTSLLWAGKSLQEGATGGHSCPQAMKKWGWETRGGFGGGGGGCSSGGGGGGYIGGNAASNNDPEMDGEDGVSFISPLGILYTPALKVMEGHGEVNIKHYLNCSHCEVDECHMDPESHKVICFCDHGTVLAEDGVSCIVSPTPEPHLPLSLILSVVTSALVAALVLAFSGIMIVYRRKHQELQAMQMELQSPEYKLSKLRTSTIMTDYNPNYCFAGKTSSISDLKEVPRKNITLIRGLGHGAFGEVYEGQVSGMPNDPSPLQVAVKTLPEVCSEQDELDFLMEALIISKFNHQNIVRCIGVSLQSLPRFILLELMAGGDLKSFLRETRPRPSQPSSLAMLDLLHVARDIACGCQYLEENHFIHRDIAARNCLLTCPGPGRVAKIGDFGMARDIYRASYYRKGGCAMLPVKWMPPEAFMEGIFTSKTDTWSFGVLLWEIFSLGYMPYPSKSNQEVLEFVTSGGRMDPPKNCPGPVYRIMTQCWQHQPEDRPNFAIILERIEYCTQDPDVINTALPIEYGPLVEEEEKVPVRPKDPEGVPPLLVSQQAKREEERSPAAPPPLPTTSSGKAAKKPTAAEISVRVPRGPAVEGGHVNMAFSQSNPPSELHKVHGSRNKPTSLWNPTYGSWFTEKPTKKNNPIAKKEPHDRGNLGLEGSCTVPPNVATGRLPGASLLLEPSSLTANMKEVPLFRLRHFPCGNVNYGYQQQGLPLEAATAPGAGHYEDTILKSKNSMNQPGP

> <PDB ID(s) of Target Chain>
2XB7,2XBA,3AOX,5FTO,5FTQ,6E0R,6EBW,6EDL,6MX8

> <UniProt (SwissProt) Recommended Name of Target Chain>
ALK tyrosine kinase receptor

> <UniProt (SwissProt) Entry Name of Target Chain>
ALK_HUMAN

> <UniProt (SwissProt) Primary ID of Target Chain>
Q9UM73

> <UniProt (SwissProt) Secondary ID(s) of Target Chain>
Q4ZFX9,Q53QQ6,Q53RZ4,Q59FI3,Q9Y4K6

> <UniProt (SwissProt) Alternative ID(s) of Target Chain>


> <UniProt (TrEMBL) Submitted Name of Target Chain>


> <UniProt (TrEMBL) Entry Name of Target Chain>


> <UniProt (TrEMBL) Primary ID of Target Chain>


> <UniProt (TrEMBL) Secondary ID(s) of Target Chain>


> <UniProt (TrEMBL) Alternative ID(s) of Target Chain>


$$$$

  SciTegic12211613472D

 41 45  0  0  0  0            999 V2000
    1.2990   -0.7500    0.0000 C   0  0
    1.2990    0.7500    0.0000 N   0  0
    0.0000    1.5000    0.0000 C   0  0
   -1.2990    0.7500    0.0000 C   0  0
   -1.2990   -0.7500    0.0000 C   0  0
    0.0000   -1.5000    0.0000 N   0  0
    2.5973   -1.5031    0.0000 N   0  0
    0.0031    3.0008    0.0000 N   0  0
    2.5951   -3.0039    0.0000 C   0  0
    3.8915   -3.7585    0.0000 C   0  0
    3.8864   -5.2585    0.0000 C   0  0
    2.5847   -6.0040    0.0000 C   0  0
    1.2883   -5.2495    0.0000 C   0  0
    1.2935   -3.7495    0.0000 C   0  0
    2.5795   -7.5047    0.0000 N   0  0
    3.8748   -8.2614    0.0000 C   0  0
    3.8672   -9.7614    0.0000 C   0  0
    2.5644  -10.5048    0.0000 C   0  0
    1.2692   -9.7483    0.0000 C   0  0
    1.2767   -8.2483    0.0000 C   0  0
    2.5568  -12.0055    0.0000 N   0  0
    3.8509  -12.7642    0.0000 C   0  0
    3.8409  -14.2642    0.0000 C   0  0
    2.5370  -15.0056    0.0000 N   0  0
    1.2429  -14.2470    0.0000 C   0  0
    1.2529  -12.7470    0.0000 C   0  0
    2.5290  -16.2056    0.0000 C   0  0
    5.1954   -3.0153    0.0000 O   0  0
    6.4915   -3.7721    0.0000 C   0  0
    1.3039    3.7494    0.0000 C   0  0
    1.3092    5.2494    0.0000 C   0  0
    2.6108    5.9949    0.0000 C   0  0
    3.9072    5.2405    0.0000 C   0  0
    3.9020    3.7405    0.0000 C   0  0
    2.6004    2.9949    0.0000 C   0  0
    0.0120    6.0044    0.0000 P   0  0
   -1.0297    5.4087    0.0000 O   0  0
    0.0166    7.2044    0.0000 C   0  0
   -1.0248    6.6085    0.0000 C   0  0
   -2.3383    1.3500    0.0000 Cl  0  0
    7.5340   -3.1779    0.0000 C   0  0
  1  2  1  0
  2  3  2  0
  3  4  1  0
  4  5  2  0
  5  6  1  0
  1  6  2  0
  1  7  1  0
  3  8  1  0
  9 10  1  0
 10 11  2  0
 11 12  1  0
 12 13  2  0
 13 14  1  0
  9 14  2  0
 15 16  1  0
 16 17  1  0
 17 18  1  0
 18 19  1  0
 19 20  1  0
 15 20  1  0
 21 22  1  0
 22 23  1  0
 23 24  1  0
 24 25  1  0
 25 26  1  0
 21 26  1  0
 24 27  1  0
 18 21  1  0
 12 15  1  0
 28 29  1  0
 10 28  1  0
  7  9  1  0
 30 31  1  0
 31 32  2  0
 32 33  1  0
 33 34  2  0
 34 35  1  0
 30 35  2  0
 36 37  2  0
 36 38  1  0
 36 39  1  0
 31 36  1  0
  8 30  1  0
  4 40  1  0
 29 41  1  0
M  END
> <From>
www.bindingDB.org

> <BindingDB Reactant_set_id>
50506527

> <Ligand InChI>
InChI=1S/C30H41ClN7O2P/c1-5-40-27-20-23(37-14-12-22(13-15-37)38-18-16-36(2)17-19-38)10-11-25(27)34-30-32-21-24(31)29(35-30)33-26-8-6-7-9-28(26)41(3,4)39/h6-11,20-22H,5,12-19H2,1-4H3,(H2,32,33,34,35)

> <Ligand InChI Key>
CDIRFGIFXIGSSF-UHFFFAOYSA-N

> <BindingDB MonomerID>
50185234

> <BindingDB Ligand Name>
CHEMBL3824318

> <Target Name Assigned by Curator or DataSource>
ALK tyrosine kinase receptor

> <Target Source Organism According to Curator or DataSource>
Homo sapiens

> <Ki (nM)>


> <IC50 (nM)>
 0.750000

> <Kd (nM)>


> <EC50 (nM)>


> <kon (M-1-s-1)>


> <koff (s-1)>


> <pH>


> <Temp C>


> <Curation/DataSource>
ChEMBL

> <Article DOI>
10.1021/acs.jmedchem.6b00306

> <PMID>
27144831

> <PubChem AID>


> <Patent Number>


> <Authors>
Huang, WS; Liu, S; Zou, D; Thomas, M; Wang, Y; Zhou, T; Romero, J; Kohlmann, A; Li, F; Qi, J; Cai, L; Dwight, TA; Xu, Y; Xu, R; Dodd, R; Toms, A; Parillon, L; Lu, X; Anjum, R; Zhang, S; Wang, F; Keats, J; Wardwell, SD; Ning, Y; Xu, Q; Moran, LE; Mohemmad, QK; Jang, HG; Clackson, T; Narasimhan, NI; Rivera, VM; Zhu, X; Dalgarno, D; Shakespeare, WC

> <Institution>
ARIAD Pharmaceuticals, Inc.

> <Link to Ligand in BindingDB>
http://www.bindingdb.org/bind/chemsearch/marvin/MolStructure.jsp?monomerid=50185234

> <Link to Ligand-Target Pair in BindingDB>
http://www.bindingdb.org/jsp/dbsearch/PrimarySearch_ki.jsp?energyterm=kJ/mole&tag=pol&polymerid=5809&target=ALK+tyrosine+kinase+receptor&column=ki&startPg=0&Increment=50&submit=Search

> <Link to Ligand-Target Pair in BindingDB>
http://www.bindingdb.org/jsp/dbsearch/PrimarySearch_ki.jsp?energyterm=kJ/mole&tag=r21&monomerid=50185234&enzyme=ALK+tyrosine+kinase+receptor&column=ki&startPg=0&Increment=50&submit=Search

> <Ligand HET ID in PDB>


> <PDB ID(s) for Ligand-Target Complex>


> <PubChem CID>
68165380

> <PubChem SID>
346550524

> <ChEBI ID of Ligand>


> <ChEMBL ID of Ligand>
CHEMBL3824318

> <DrugBank ID of Ligand>


> <IUPHAR_GRAC ID of Ligand>


> <KEGG ID of Ligand>


> <ZINC ID of Ligand>


> <Number of Protein Chains in Target (>1 implies a multichain complex)>
1

> <BindingDB Target Chain Sequence>
MGAIGLLWLLPLLLSTAAVGSGMGTGQRAGSPAAGPPLQPREPLSYSRLQRKSLAVDFVVPSLFRVYARDLLLPPSSSELKAGRPEARGSLALDCAPLLRLLGPAPGVSWTAGSPAPAEARTLSRVLKGGSVRKLRRAKQLVLELGEEAILEGCVGPPGEAAVGLLQFNLSELFSWWIRQGEGRLRIRLMPEKKASEVGREGRLSAAIRASQPRLLFQIFGTGHSSLESPTNMPSPSPDYFTWNLTWIMKDSFPFLSHRSRYGLECSFDFPCELEYSPPLHDLRNQSWSWRRIPSEEASQMDLLDGPGAERSKEMPRGSFLLLNTSADSKHTILSPWMRSSSEHCTLAVSVHRHLQPSGRYIAQLLPHNEAAREILLMPTPGKHGWTVLQGRIGRPDNPFRVALEYISSGNRSLSAVDFFALKNCSEGTSPGSKMALQSSFTCWNGTVLQLGQACDFHQDCAQGEDESQMCRKLPVGFYCNFEDGFCGWTQGTLSPHTPQWQVRTLKDARFQDHQDHALLLSTTDVPASESATVTSATFPAPIKSSPCELRMSWLIRGVLRGNVSLVLVENKTGKEQGRMVWHVAAYEGLSLWQWMVLPLLDVSDRFWLQMVAWWGQGSRAIVAFDNISISLDCYLTISGEDKILQNTAPKSRNLFERNPNKELKPGENSPRQTPIFDPTVHWLFTTCGASGPHGPTQAQCNNAYQNSNLSVEVGSEGPLKGIQIWKVPATDTYSISGYGAAGGKGGKNTMMRSHGVSVLGIFNLEKDDMLYILVGQQGEDACPSTNQLIQKVCIGENNVIEEEIRVNRSVHEWAGGGGGGGGATYVFKMKDGVPVPLIIAAGGGGRAYGAKTDTFHPERLENNSSVLGLNGNSGAAGGGGGWNDNTSLLWAGKSLQEGATGGHSCPQAMKKWGWETRGGFGGGGGGCSSGGGGGGYIGGNAASNNDPEMDGEDGVSFISPLGILYTPALKVMEGHGEVNIKHYLNCSHCEVDECHMDPESHKVICFCDHGTVLAEDGVSCIVSPTPEPHLPLSLILSVVTSALVAALVLAFSGIMIVYRRKHQELQAMQMELQSPEYKLSKLRTSTIMTDYNPNYCFAGKTSSISDLKEVPRKNITLIRGLGHGAFGEVYEGQVSGMPNDPSPLQVAVKTLPEVCSEQDELDFLMEALIISKFNHQNIVRCIGVSLQSLPRFILLELMAGGDLKSFLRETRPRPSQPSSLAMLDLLHVARDIACGCQYLEENHFIHRDIAARNCLLTCPGPGRVAKIGDFGMARDIYRASYYRKGGCAMLPVKWMPPEAFMEGIFTSKTDTWSFGVLLWEIFSLGYMPYPSKSNQEVLEFVTSGGRMDPPKNCPGPVYRIMTQCWQHQPEDRPNFAIILERIEYCTQDPDVINTALPIEYGPLVEEEEKVPVRPKDPEGVPPLLVSQQAKREEERSPAAPPPLPTTSSGKAAKKPTAAEISVRVPRGPAVEGGHVNMAFSQSNPPSELHKVHGSRNKPTSLWNPTYGSWFTEKPTKKNNPIAKKEPHDRGNLGLEGSCTVPPNVATGRLPGASLLLEPSSLTANMKEVPLFRLRHFPCGNVNYGYQQQGLPLEAATAPGAGHYEDTILKSKNSMNQPGP

> <PDB ID(s) of Target Chain>
2XB7,2XBA,3AOX,5FTO,5FTQ,6E0R,6EBW,6EDL,6MX8

> <UniProt (SwissProt) Recommended Name of Target Chain>
ALK tyrosine kinase receptor

> <UniProt (SwissProt) Entry Name of Target Chain>
ALK_HUMAN

> <UniProt (SwissProt) Primary ID of Target Chain>
Q9UM73

> <UniProt (SwissProt) Secondary ID(s) of Target Chain>
Q4ZFX9,Q53QQ6,Q53RZ4,Q59FI3,Q9Y4K6

> <UniProt (SwissProt) Alternative ID(s) of Target Chain>


> <UniProt (TrEMBL) Submitted Name of Target Chain>


> <UniProt (TrEMBL) Entry Name of Target Chain>


> <UniProt (TrEMBL) Primary ID of Target Chain>


> <UniProt (TrEMBL) Secondary ID(s) of Target Chain>


> <UniProt (TrEMBL) Alternative ID(s) of Target Chain>


$$$$

  SciTegic12211613472D

 41 45  0  0  0  0            999 V2000
    1.2990   -0.7500    0.0000 C   0  0
    1.2990    0.7500    0.0000 N   0  0
    0.0000    1.5000    0.0000 C   0  0
   -1.2990    0.7500    0.0000 C   0  0
   -1.2990   -0.7500    0.0000 C   0  0
    0.0000   -1.5000    0.0000 N   0  0
    2.5973   -1.5031    0.0000 N   0  0
    0.0031    3.0008    0.0000 N   0  0
    2.5951   -3.0039    0.0000 C   0  0
    3.8915   -3.7585    0.0000 C   0  0
    3.8864   -5.2585    0.0000 C   0  0
    2.5847   -6.0040    0.0000 C   0  0
    1.2883   -5.2495    0.0000 C   0  0
    1.2935   -3.7495    0.0000 C   0  0
    2.5795   -7.5047    0.0000 N   0  0
    3.8748   -8.2614    0.0000 C   0  0
    3.8672   -9.7614    0.0000 C   0  0
    2.5644  -10.5048    0.0000 C   0  0
    1.2692   -9.7483    0.0000 C   0  0
    1.2767   -8.2483    0.0000 C   0  0
    2.5568  -12.0055    0.0000 N   0  0
    3.8509  -12.7642    0.0000 C   0  0
    3.8409  -14.2642    0.0000 C   0  0
    2.5370  -15.0056    0.0000 N   0  0
    1.2429  -14.2470    0.0000 C   0  0
    1.2529  -12.7470    0.0000 C   0  0
    2.5290  -16.2056    0.0000 C   0  0
    5.1954   -3.0153    0.0000 O   0  0
    6.2317   -3.6204    0.0000 C   0  0
    1.3039    3.7494    0.0000 C   0  0
    1.3092    5.2494    0.0000 C   0  0
    2.6108    5.9949    0.0000 C   0  0
    3.9072    5.2405    0.0000 C   0  0
    3.9020    3.7405    0.0000 C   0  0
    2.6004    2.9949    0.0000 C   0  0
    0.0120    6.0044    0.0000 P   0  0
   -1.0297    5.4087    0.0000 O   0  0
    0.0166    7.2044    0.0000 C   0  0
   -1.0248    6.6085    0.0000 C   0  0
   -2.3383    1.3500    0.0000 Cl  0  0
    0.2470   -5.8459    0.0000 C   0  0
  1  2  1  0
  2  3  2  0
  3  4  1  0
  4  5  2  0
  5  6  1  0
  1  6  2  0
  1  7  1  0
  3  8  1  0
  9 10  1  0
 10 11  2  0
 11 12  1  0
 12 13  2  0
 13 14  1  0
  9 14  2  0
 15 16  1  0
 16 17  1  0
 17 18  1  0
 18 19  1  0
 19 20  1  0
 15 20  1  0
 21 22  1  0
 22 23  1  0
 23 24  1  0
 24 25  1  0
 25 26  1  0
 21 26  1  0
 24 27  1  0
 18 21  1  0
 12 15  1  0
 28 29  1  0
 10 28  1  0
  7  9  1  0
 30 31  1  0
 31 32  2  0
 32 33  1  0
 33 34  2  0
 34 35  1  0
 30 35  2  0
 36 37  2  0
 36 38  1  0
 36 39  1  0
 31 36  1  0
  8 30  1  0
  4 40  1  0
 13 41  1  0
M  END
> <From>
www.bindingDB.org

> <BindingDB Reactant_set_id>
50506528

> <Ligand InChI>
InChI=1S/C30H41ClN7O2P/c1-21-18-25(27(40-3)19-26(21)38-12-10-22(11-13-38)37-16-14-36(2)15-17-37)34-30-32-20-23(31)29(35-30)33-24-8-6-7-9-28(24)41(4,5)39/h6-9,18-20,22H,10-17H2,1-5H3,(H2,32,33,34,35)

> <Ligand InChI Key>
FXYPQFBJRKMLDS-UHFFFAOYSA-N

> <BindingDB MonomerID>
50185235

> <BindingDB Ligand Name>
CHEMBL3823836

> <Target Name Assigned by Curator or DataSource>
ALK tyrosine kinase receptor

> <Target Source Organism According to Curator or DataSource>
Homo sapiens

> <Ki (nM)>


> <IC50 (nM)>
 0.860000

> <Kd (nM)>


> <EC50 (nM)>


> <kon (M-1-s-1)>


> <koff (s-1)>


> <pH>


> <Temp C>


> <Curation/DataSource>
ChEMBL

> <Article DOI>
10.1021/acs.jmedchem.6b00306

> <PMID>
27144831

> <PubChem AID>


> <Patent Number>


> <Authors>
Huang, WS; Liu, S; Zou, D; Thomas, M; Wang, Y; Zhou, T; Romero, J; Kohlmann, A; Li, F; Qi, J; Cai, L; Dwight, TA; Xu, Y; Xu, R; Dodd, R; Toms, A; Parillon, L; Lu, X; Anjum, R; Zhang, S; Wang, F; Keats, J; Wardwell, SD; Ning, Y; Xu, Q; Moran, LE; Mohemmad, QK; Jang, HG; Clackson, T; Narasimhan, NI; Rivera, VM; Zhu, X; Dalgarno, D; Shakespeare, WC

> <Institution>
ARIAD Pharmaceuticals, Inc.

> <Link to Ligand in BindingDB>
http://www.bindingdb.org/bind/chemsearch/marvin/MolStructure.jsp?monomerid=50185235

> <Link to Ligand-Target Pair in BindingDB>
http://www.bindingdb.org/jsp/dbsearch/PrimarySearch_ki.jsp?energyterm=kJ/mole&tag=pol&polymerid=5809&target=ALK+tyrosine+kinase+receptor&column=ki&startPg=0&Increment=50&submit=Search

> <Link to Ligand-Target Pair in BindingDB>
http://www.bindingdb.org/jsp/dbsearch/PrimarySearch_ki.jsp?energyterm=kJ/mole&tag=r21&monomerid=50185235&enzyme=ALK+tyrosine+kinase+receptor&column=ki&startPg=0&Increment=50&submit=Search

> <Ligand HET ID in PDB>


> <PDB ID(s) for Ligand-Target Complex>


> <PubChem CID>
68165414

> <PubChem SID>
346550525

> <ChEBI ID of Ligand>


> <ChEMBL ID of Ligand>
CHEMBL3823836

> <DrugBank ID of Ligand>


> <IUPHAR_GRAC ID of Ligand>


> <KEGG ID of Ligand>


> <ZINC ID of Ligand>


> <Number of Protein Chains in Target (>1 implies a multichain complex)>
1

> <BindingDB Target Chain Sequence>
MGAIGLLWLLPLLLSTAAVGSGMGTGQRAGSPAAGPPLQPREPLSYSRLQRKSLAVDFVVPSLFRVYARDLLLPPSSSELKAGRPEARGSLALDCAPLLRLLGPAPGVSWTAGSPAPAEARTLSRVLKGGSVRKLRRAKQLVLELGEEAILEGCVGPPGEAAVGLLQFNLSELFSWWIRQGEGRLRIRLMPEKKASEVGREGRLSAAIRASQPRLLFQIFGTGHSSLESPTNMPSPSPDYFTWNLTWIMKDSFPFLSHRSRYGLECSFDFPCELEYSPPLHDLRNQSWSWRRIPSEEASQMDLLDGPGAERSKEMPRGSFLLLNTSADSKHTILSPWMRSSSEHCTLAVSVHRHLQPSGRYIAQLLPHNEAAREILLMPTPGKHGWTVLQGRIGRPDNPFRVALEYISSGNRSLSAVDFFALKNCSEGTSPGSKMALQSSFTCWNGTVLQLGQACDFHQDCAQGEDESQMCRKLPVGFYCNFEDGFCGWTQGTLSPHTPQWQVRTLKDARFQDHQDHALLLSTTDVPASESATVTSATFPAPIKSSPCELRMSWLIRGVLRGNVSLVLVENKTGKEQGRMVWHVAAYEGLSLWQWMVLPLLDVSDRFWLQMVAWWGQGSRAIVAFDNISISLDCYLTISGEDKILQNTAPKSRNLFERNPNKELKPGENSPRQTPIFDPTVHWLFTTCGASGPHGPTQAQCNNAYQNSNLSVEVGSEGPLKGIQIWKVPATDTYSISGYGAAGGKGGKNTMMRSHGVSVLGIFNLEKDDMLYILVGQQGEDACPSTNQLIQKVCIGENNVIEEEIRVNRSVHEWAGGGGGGGGATYVFKMKDGVPVPLIIAAGGGGRAYGAKTDTFHPERLENNSSVLGLNGNSGAAGGGGGWNDNTSLLWAGKSLQEGATGGHSCPQAMKKWGWETRGGFGGGGGGCSSGGGGGGYIGGNAASNNDPEMDGEDGVSFISPLGILYTPALKVMEGHGEVNIKHYLNCSHCEVDECHMDPESHKVICFCDHGTVLAEDGVSCIVSPTPEPHLPLSLILSVVTSALVAALVLAFSGIMIVYRRKHQELQAMQMELQSPEYKLSKLRTSTIMTDYNPNYCFAGKTSSISDLKEVPRKNITLIRGLGHGAFGEVYEGQVSGMPNDPSPLQVAVKTLPEVCSEQDELDFLMEALIISKFNHQNIVRCIGVSLQSLPRFILLELMAGGDLKSFLRETRPRPSQPSSLAMLDLLHVARDIACGCQYLEENHFIHRDIAARNCLLTCPGPGRVAKIGDFGMARDIYRASYYRKGGCAMLPVKWMPPEAFMEGIFTSKTDTWSFGVLLWEIFSLGYMPYPSKSNQEVLEFVTSGGRMDPPKNCPGPVYRIMTQCWQHQPEDRPNFAIILERIEYCTQDPDVINTALPIEYGPLVEEEEKVPVRPKDPEGVPPLLVSQQAKREEERSPAAPPPLPTTSSGKAAKKPTAAEISVRVPRGPAVEGGHVNMAFSQSNPPSELHKVHGSRNKPTSLWNPTYGSWFTEKPTKKNNPIAKKEPHDRGNLGLEGSCTVPPNVATGRLPGASLLLEPSSLTANMKEVPLFRLRHFPCGNVNYGYQQQGLPLEAATAPGAGHYEDTILKSKNSMNQPGP

> <PDB ID(s) of Target Chain>
2XB7,2XBA,3AOX,5FTO,5FTQ,6E0R,6EBW,6EDL,6MX8

> <UniProt (SwissProt) Recommended Name of Target Chain>
ALK tyrosine kinase receptor

> <UniProt (SwissProt) Entry Name of Target Chain>
ALK_HUMAN

> <UniProt (SwissProt) Primary ID of Target Chain>
Q9UM73

> <UniProt (SwissProt) Secondary ID(s) of Target Chain>
Q4ZFX9,Q53QQ6,Q53RZ4,Q59FI3,Q9Y4K6

> <UniProt (SwissProt) Alternative ID(s) of Target Chain>


> <UniProt (TrEMBL) Submitted Name of Target Chain>


> <UniProt (TrEMBL) Entry Name of Target Chain>


> <UniProt (TrEMBL) Primary ID of Target Chain>


> <UniProt (TrEMBL) Secondary ID(s) of Target Chain>


> <UniProt (TrEMBL) Alternative ID(s) of Target Chain>


$$$$

  SciTegic12211613472D

 41 45  0  0  0  0            999 V2000
    1.2990   -0.7500    0.0000 C   0  0
    1.2990    0.7500    0.0000 N   0  0
    0.0000    1.5000    0.0000 C   0  0
   -1.2990    0.7500    0.0000 C   0  0
   -1.2990   -0.7500    0.0000 C   0  0
    0.0000   -1.5000    0.0000 N   0  0
    2.5973   -1.5031    0.0000 N   0  0
    0.0031    3.0008    0.0000 N   0  0
    2.5951   -3.0039    0.0000 C   0  0
    3.8915   -3.7585    0.0000 C   0  0
    3.8864   -5.2585    0.0000 C   0  0
    2.5847   -6.0040    0.0000 C   0  0
    1.2883   -5.2495    0.0000 C   0  0
    1.2935   -3.7495    0.0000 C   0  0
    2.5795   -7.5047    0.0000 N   0  0
    3.8748   -8.2614    0.0000 C   0  0
    3.8672   -9.7614    0.0000 C   0  0
    2.5644  -10.5048    0.0000 C   0  0
    1.2692   -9.7483    0.0000 C   0  0
    1.2767   -8.2483    0.0000 C   0  0
    2.5568  -12.0055    0.0000 N   0  0
    3.8509  -12.7642    0.0000 C   0  0
    3.8409  -14.2642    0.0000 C   0  0
    2.5370  -15.0056    0.0000 N   0  0
    1.2429  -14.2470    0.0000 C   0  0
    1.2529  -12.7470    0.0000 C   0  0
    2.5290  -16.2056    0.0000 C   0  0
    5.1954   -3.0153    0.0000 O   0  0
    6.2317   -3.6204    0.0000 C   0  0
    1.3039    3.7494    0.0000 C   0  0
    1.3092    5.2494    0.0000 C   0  0
    2.6108    5.9949    0.0000 C   0  0
    3.9072    5.2405    0.0000 C   0  0
    3.9020    3.7405    0.0000 C   0  0
    2.6004    2.9949    0.0000 C   0  0
    0.0120    6.0044    0.0000 P   0  0
   -1.0297    5.4087    0.0000 O   0  0
    0.0166    7.2044    0.0000 C   0  0
   -1.0248    6.6085    0.0000 C   0  0
   -2.3383    1.3500    0.0000 Cl  0  0
    0.2470   -5.8459    0.0000 F   0  0
  1  2  1  0
  2  3  2  0
  3  4  1  0
  4  5  2  0
  5  6  1  0
  1  6  2  0
  1  7  1  0
  3  8  1  0
  9 10  1  0
 10 11  2  0
 11 12  1  0
 12 13  2  0
 13 14  1  0
  9 14  2  0
 15 16  1  0
 16 17  1  0
 17 18  1  0
 18 19  1  0
 19 20  1  0
 15 20  1  0
 21 22  1  0
 22 23  1  0
 23 24  1  0
 24 25  1  0
 25 26  1  0
 21 26  1  0
 24 27  1  0
 18 21  1  0
 12 15  1  0
 28 29  1  0
 10 28  1  0
  7  9  1  0
 30 31  1  0
 31 32  2  0
 32 33  1  0
 33 34  2  0
 34 35  1  0
 30 35  2  0
 36 37  2  0
 36 38  1  0
 36 39  1  0
 31 36  1  0
  8 30  1  0
  4 40  1  0
 13 41  1  0
M  END
> <From>
www.bindingDB.org

> <BindingDB Reactant_set_id>
50506529

> <Ligand InChI>
InChI=1S/C29H38ClFN7O2P/c1-36-13-15-37(16-14-36)20-9-11-38(12-10-20)25-18-26(40-2)24(17-22(25)31)34-29-32-19-21(30)28(35-29)33-23-7-5-6-8-27(23)41(3,4)39/h5-8,17-20H,9-16H2,1-4H3,(H2,32,33,34,35)

> <Ligand InChI Key>
GERKWUCMHZITIS-UHFFFAOYSA-N

> <BindingDB MonomerID>
50185236

> <BindingDB Ligand Name>
CHEMBL3823078

> <Target Name Assigned by Curator or DataSource>
ALK tyrosine kinase receptor

> <Target Source Organism According to Curator or DataSource>
Homo sapiens

> <Ki (nM)>


> <IC50 (nM)>
 1.0

> <Kd (nM)>


> <EC50 (nM)>


> <kon (M-1-s-1)>


> <koff (s-1)>


> <pH>


> <Temp C>


> <Curation/DataSource>
ChEMBL

> <Article DOI>
10.1021/acs.jmedchem.6b00306

> <PMID>
27144831

> <PubChem AID>


> <Patent Number>


> <Authors>
Huang, WS; Liu, S; Zou, D; Thomas, M; Wang, Y; Zhou, T; Romero, J; Kohlmann, A; Li, F; Qi, J; Cai, L; Dwight, TA; Xu, Y; Xu, R; Dodd, R; Toms, A; Parillon, L; Lu, X; Anjum, R; Zhang, S; Wang, F; Keats, J; Wardwell, SD; Ning, Y; Xu, Q; Moran, LE; Mohemmad, QK; Jang, HG; Clackson, T; Narasimhan, NI; Rivera, VM; Zhu, X; Dalgarno, D; Shakespeare, WC

> <Institution>
ARIAD Pharmaceuticals, Inc.

> <Link to Ligand in BindingDB>
http://www.bindingdb.org/bind/chemsearch/marvin/MolStructure.jsp?monomerid=50185236

> <Link to Ligand-Target Pair in BindingDB>
http://www.bindingdb.org/jsp/dbsearch/PrimarySearch_ki.jsp?energyterm=kJ/mole&tag=pol&polymerid=5809&target=ALK+tyrosine+kinase+receptor&column=ki&startPg=0&Increment=50&submit=Search

> <Link to Ligand-Target Pair in BindingDB>
http://www.bindingdb.org/jsp/dbsearch/PrimarySearch_ki.jsp?energyterm=kJ/mole&tag=r21&monomerid=50185236&enzyme=ALK+tyrosine+kinase+receptor&column=ki&startPg=0&Increment=50&submit=Search

> <Ligand HET ID in PDB>


> <PDB ID(s) for Ligand-Target Complex>


> <PubChem CID>
56966906

> <PubChem SID>
346550526

> <ChEBI ID of Ligand>


> <ChEMBL ID of Ligand>
CHEMBL3823078

> <DrugBank ID of Ligand>


> <IUPHAR_GRAC ID of Ligand>


> <KEGG ID of Ligand>


> <ZINC ID of Ligand>


> <Number of Protein Chains in Target (>1 implies a multichain complex)>
1

> <BindingDB Target Chain Sequence>
MGAIGLLWLLPLLLSTAAVGSGMGTGQRAGSPAAGPPLQPREPLSYSRLQRKSLAVDFVVPSLFRVYARDLLLPPSSSELKAGRPEARGSLALDCAPLLRLLGPAPGVSWTAGSPAPAEARTLSRVLKGGSVRKLRRAKQLVLELGEEAILEGCVGPPGEAAVGLLQFNLSELFSWWIRQGEGRLRIRLMPEKKASEVGREGRLSAAIRASQPRLLFQIFGTGHSSLESPTNMPSPSPDYFTWNLTWIMKDSFPFLSHRSRYGLECSFDFPCELEYSPPLHDLRNQSWSWRRIPSEEASQMDLLDGPGAERSKEMPRGSFLLLNTSADSKHTILSPWMRSSSEHCTLAVSVHRHLQPSGRYIAQLLPHNEAAREILLMPTPGKHGWTVLQGRIGRPDNPFRVALEYISSGNRSLSAVDFFALKNCSEGTSPGSKMALQSSFTCWNGTVLQLGQACDFHQDCAQGEDESQMCRKLPVGFYCNFEDGFCGWTQGTLSPHTPQWQVRTLKDARFQDHQDHALLLSTTDVPASESATVTSATFPAPIKSSPCELRMSWLIRGVLRGNVSLVLVENKTGKEQGRMVWHVAAYEGLSLWQWMVLPLLDVSDRFWLQMVAWWGQGSRAIVAFDNISISLDCYLTISGEDKILQNTAPKSRNLFERNPNKELKPGENSPRQTPIFDPTVHWLFTTCGASGPHGPTQAQCNNAYQNSNLSVEVGSEGPLKGIQIWKVPATDTYSISGYGAAGGKGGKNTMMRSHGVSVLGIFNLEKDDMLYILVGQQGEDACPSTNQLIQKVCIGENNVIEEEIRVNRSVHEWAGGGGGGGGATYVFKMKDGVPVPLIIAAGGGGRAYGAKTDTFHPERLENNSSVLGLNGNSGAAGGGGGWNDNTSLLWAGKSLQEGATGGHSCPQAMKKWGWETRGGFGGGGGGCSSGGGGGGYIGGNAASNNDPEMDGEDGVSFISPLGILYTPALKVMEGHGEVNIKHYLNCSHCEVDECHMDPESHKVICFCDHGTVLAEDGVSCIVSPTPEPHLPLSLILSVVTSALVAALVLAFSGIMIVYRRKHQELQAMQMELQSPEYKLSKLRTSTIMTDYNPNYCFAGKTSSISDLKEVPRKNITLIRGLGHGAFGEVYEGQVSGMPNDPSPLQVAVKTLPEVCSEQDELDFLMEALIISKFNHQNIVRCIGVSLQSLPRFILLELMAGGDLKSFLRETRPRPSQPSSLAMLDLLHVARDIACGCQYLEENHFIHRDIAARNCLLTCPGPGRVAKIGDFGMARDIYRASYYRKGGCAMLPVKWMPPEAFMEGIFTSKTDTWSFGVLLWEIFSLGYMPYPSKSNQEVLEFVTSGGRMDPPKNCPGPVYRIMTQCWQHQPEDRPNFAIILERIEYCTQDPDVINTALPIEYGPLVEEEEKVPVRPKDPEGVPPLLVSQQAKREEERSPAAPPPLPTTSSGKAAKKPTAAEISVRVPRGPAVEGGHVNMAFSQSNPPSELHKVHGSRNKPTSLWNPTYGSWFTEKPTKKNNPIAKKEPHDRGNLGLEGSCTVPPNVATGRLPGASLLLEPSSLTANMKEVPLFRLRHFPCGNVNYGYQQQGLPLEAATAPGAGHYEDTILKSKNSMNQPGP

> <PDB ID(s) of Target Chain>
2XB7,2XBA,3AOX,5FTO,5FTQ,6E0R,6EBW,6EDL,6MX8

> <UniProt (SwissProt) Recommended Name of Target Chain>
ALK tyrosine kinase receptor

> <UniProt (SwissProt) Entry Name of Target Chain>
ALK_HUMAN

> <UniProt (SwissProt) Primary ID of Target Chain>
Q9UM73

> <UniProt (SwissProt) Secondary ID(s) of Target Chain>
Q4ZFX9,Q53QQ6,Q53RZ4,Q59FI3,Q9Y4K6

> <UniProt (SwissProt) Alternative ID(s) of Target Chain>


> <UniProt (TrEMBL) Submitted Name of Target Chain>


> <UniProt (TrEMBL) Entry Name of Target Chain>


> <UniProt (TrEMBL) Primary ID of Target Chain>


> <UniProt (TrEMBL) Secondary ID(s) of Target Chain>


> <UniProt (TrEMBL) Alternative ID(s) of Target Chain>


$$$$

  SciTegic12211613472D

 42 46  0  0  0  0            999 V2000
    1.2990   -0.7500    0.0000 C   0  0
    1.2990    0.7500    0.0000 N   0  0
    0.0000    1.5000    0.0000 C   0  0
   -1.2990    0.7500    0.0000 C   0  0
   -1.2990   -0.7500    0.0000 C   0  0
    0.0000   -1.5000    0.0000 N   0  0
    2.5973   -1.5031    0.0000 N   0  0
    0.0031    3.0008    0.0000 N   0  0
    2.5951   -3.0039    0.0000 C   0  0
    3.8915   -3.7585    0.0000 C   0  0
    3.8864   -5.2585    0.0000 C   0  0
    2.5847   -6.0040    0.0000 C   0  0
    1.2883   -5.2495    0.0000 C   0  0
    1.2935   -3.7495    0.0000 C   0  0
    2.5795   -7.5047    0.0000 N   0  0
    3.8748   -8.2614    0.0000 C   0  0
    3.8672   -9.7614    0.0000 C   0  0
    2.5644  -10.5048    0.0000 C   0  0
    1.2692   -9.7483    0.0000 C   0  0
    1.2767   -8.2483    0.0000 C   0  0
    2.5568  -12.0055    0.0000 N   0  0
    3.8509  -12.7642    0.0000 C   0  0
    3.8409  -14.2642    0.0000 C   0  0
    2.5370  -15.0056    0.0000 N   0  0
    1.2429  -14.2470    0.0000 C   0  0
    1.2529  -12.7470    0.0000 C   0  0
    2.5290  -16.2056    0.0000 C   0  0
    5.1954   -3.0153    0.0000 O   0  0
    6.2317   -3.6204    0.0000 C   0  0
    1.3039    3.7494    0.0000 C   0  0
    1.3092    5.2494    0.0000 C   0  0
    2.6108    5.9949    0.0000 C   0  0
    3.9072    5.2405    0.0000 C   0  0
    3.9020    3.7405    0.0000 C   0  0
    2.6004    2.9949    0.0000 C   0  0
    0.0120    6.0044    0.0000 P   0  0
    0.0166    7.2044    0.0000 O   0  0
   -1.2908    5.2593    0.0000 C   0  0
   -1.3090    6.7763    0.0000 C   0  0
   -2.3383    1.3500    0.0000 Cl  0  0
   -1.3034    7.9762    0.0000 C   0  0
   -2.3279    5.8629    0.0000 C   0  0
  1  2  1  0
  2  3  2  0
  3  4  1  0
  4  5  2  0
  5  6  1  0
  1  6  2  0
  1  7  1  0
  3  8  1  0
  9 10  1  0
 10 11  2  0
 11 12  1  0
 12 13  2  0
 13 14  1  0
  9 14  2  0
 15 16  1  0
 16 17  1  0
 17 18  1  0
 18 19  1  0
 19 20  1  0
 15 20  1  0
 21 22  1  0
 22 23  1  0
 23 24  1  0
 24 25  1  0
 25 26  1  0
 21 26  1  0
 24 27  1  0
 18 21  1  0
 12 15  1  0
 28 29  1  0
 10 28  1  0
  7  9  1  0
 30 31  1  0
 31 32  2  0
 32 33  1  0
 33 34  2  0
 34 35  1  0
 30 35  2  0
 36 37  2  0
 36 38  1  0
 36 39  1  0
 31 36  1  0
  8 30  1  0
  4 40  1  0
 39 41  1  0
 38 42  1  0
M  END
> <From>
www.bindingDB.org

> <BindingDB Reactant_set_id>
50506530

> <Ligand InChI>
InChI=1S/C31H43ClN7O2P/c1-5-42(40,6-2)29-10-8-7-9-27(29)34-30-25(32)22-33-31(36-30)35-26-12-11-24(21-28(26)41-4)38-15-13-23(14-16-38)39-19-17-37(3)18-20-39/h7-12,21-23H,5-6,13-20H2,1-4H3,(H2,33,34,35,36)

> <Ligand InChI Key>
XBAUQTADQOFONU-UHFFFAOYSA-N

> <BindingDB MonomerID>
50185237

> <BindingDB Ligand Name>
CHEMBL3824308

> <Target Name Assigned by Curator or DataSource>
ALK tyrosine kinase receptor

> <Target Source Organism According to Curator or DataSource>
Homo sapiens

> <Ki (nM)>


> <IC50 (nM)>
 0.120000

> <Kd (nM)>


> <EC50 (nM)>


> <kon (M-1-s-1)>


> <koff (s-1)>


> <pH>


> <Temp C>


> <Curation/DataSource>
ChEMBL

> <Article DOI>
10.1021/acs.jmedchem.6b00306

> <PMID>
27144831

> <PubChem AID>


> <Patent Number>


> <Authors>
Huang, WS; Liu, S; Zou, D; Thomas, M; Wang, Y; Zhou, T; Romero, J; Kohlmann, A; Li, F; Qi, J; Cai, L; Dwight, TA; Xu, Y; Xu, R; Dodd, R; Toms, A; Parillon, L; Lu, X; Anjum, R; Zhang, S; Wang, F; Keats, J; Wardwell, SD; Ning, Y; Xu, Q; Moran, LE; Mohemmad, QK; Jang, HG; Clackson, T; Narasimhan, NI; Rivera, VM; Zhu, X; Dalgarno, D; Shakespeare, WC

> <Institution>
ARIAD Pharmaceuticals, Inc.

> <Link to Ligand in BindingDB>
http://www.bindingdb.org/bind/chemsearch/marvin/MolStructure.jsp?monomerid=50185237

> <Link to Ligand-Target Pair in BindingDB>
http://www.bindingdb.org/jsp/dbsearch/PrimarySearch_ki.jsp?energyterm=kJ/mole&tag=pol&polymerid=5809&target=ALK+tyrosine+kinase+receptor&column=ki&startPg=0&Increment=50&submit=Search

> <Link to Ligand-Target Pair in BindingDB>
http://www.bindingdb.org/jsp/dbsearch/PrimarySearch_ki.jsp?energyterm=kJ/mole&tag=r21&monomerid=50185237&enzyme=ALK+tyrosine+kinase+receptor&column=ki&startPg=0&Increment=50&submit=Search

> <Ligand HET ID in PDB>


> <PDB ID(s) for Ligand-Target Complex>


> <PubChem CID>
68165302

> <PubChem SID>
346550527

> <ChEBI ID of Ligand>


> <ChEMBL ID of Ligand>
CHEMBL3824308

> <DrugBank ID of Ligand>


> <IUPHAR_GRAC ID of Ligand>


> <KEGG ID of Ligand>


> <ZINC ID of Ligand>


> <Number of Protein Chains in Target (>1 implies a multichain complex)>
1

> <BindingDB Target Chain Sequence>
MGAIGLLWLLPLLLSTAAVGSGMGTGQRAGSPAAGPPLQPREPLSYSRLQRKSLAVDFVVPSLFRVYARDLLLPPSSSELKAGRPEARGSLALDCAPLLRLLGPAPGVSWTAGSPAPAEARTLSRVLKGGSVRKLRRAKQLVLELGEEAILEGCVGPPGEAAVGLLQFNLSELFSWWIRQGEGRLRIRLMPEKKASEVGREGRLSAAIRASQPRLLFQIFGTGHSSLESPTNMPSPSPDYFTWNLTWIMKDSFPFLSHRSRYGLECSFDFPCELEYSPPLHDLRNQSWSWRRIPSEEASQMDLLDGPGAERSKEMPRGSFLLLNTSADSKHTILSPWMRSSSEHCTLAVSVHRHLQPSGRYIAQLLPHNEAAREILLMPTPGKHGWTVLQGRIGRPDNPFRVALEYISSGNRSLSAVDFFALKNCSEGTSPGSKMALQSSFTCWNGTVLQLGQACDFHQDCAQGEDESQMCRKLPVGFYCNFEDGFCGWTQGTLSPHTPQWQVRTLKDARFQDHQDHALLLSTTDVPASESATVTSATFPAPIKSSPCELRMSWLIRGVLRGNVSLVLVENKTGKEQGRMVWHVAAYEGLSLWQWMVLPLLDVSDRFWLQMVAWWGQGSRAIVAFDNISISLDCYLTISGEDKILQNTAPKSRNLFERNPNKELKPGENSPRQTPIFDPTVHWLFTTCGASGPHGPTQAQCNNAYQNSNLSVEVGSEGPLKGIQIWKVPATDTYSISGYGAAGGKGGKNTMMRSHGVSVLGIFNLEKDDMLYILVGQQGEDACPSTNQLIQKVCIGENNVIEEEIRVNRSVHEWAGGGGGGGGATYVFKMKDGVPVPLIIAAGGGGRAYGAKTDTFHPERLENNSSVLGLNGNSGAAGGGGGWNDNTSLLWAGKSLQEGATGGHSCPQAMKKWGWETRGGFGGGGGGCSSGGGGGGYIGGNAASNNDPEMDGEDGVSFISPLGILYTPALKVMEGHGEVNIKHYLNCSHCEVDECHMDPESHKVICFCDHGTVLAEDGVSCIVSPTPEPHLPLSLILSVVTSALVAALVLAFSGIMIVYRRKHQELQAMQMELQSPEYKLSKLRTSTIMTDYNPNYCFAGKTSSISDLKEVPRKNITLIRGLGHGAFGEVYEGQVSGMPNDPSPLQVAVKTLPEVCSEQDELDFLMEALIISKFNHQNIVRCIGVSLQSLPRFILLELMAGGDLKSFLRETRPRPSQPSSLAMLDLLHVARDIACGCQYLEENHFIHRDIAARNCLLTCPGPGRVAKIGDFGMARDIYRASYYRKGGCAMLPVKWMPPEAFMEGIFTSKTDTWSFGVLLWEIFSLGYMPYPSKSNQEVLEFVTSGGRMDPPKNCPGPVYRIMTQCWQHQPEDRPNFAIILERIEYCTQDPDVINTALPIEYGPLVEEEEKVPVRPKDPEGVPPLLVSQQAKREEERSPAAPPPLPTTSSGKAAKKPTAAEISVRVPRGPAVEGGHVNMAFSQSNPPSELHKVHGSRNKPTSLWNPTYGSWFTEKPTKKNNPIAKKEPHDRGNLGLEGSCTVPPNVATGRLPGASLLLEPSSLTANMKEVPLFRLRHFPCGNVNYGYQQQGLPLEAATAPGAGHYEDTILKSKNSMNQPGP

> <PDB ID(s) of Target Chain>
2XB7,2XBA,3AOX,5FTO,5FTQ,6E0R,6EBW,6EDL,6MX8

> <UniProt (SwissProt) Recommended Name of Target Chain>
ALK tyrosine kinase receptor

> <UniProt (SwissProt) Entry Name of Target Chain>
ALK_HUMAN

> <UniProt (SwissProt) Primary ID of Target Chain>
Q9UM73

> <UniProt (SwissProt) Secondary ID(s) of Target Chain>
Q4ZFX9,Q53QQ6,Q53RZ4,Q59FI3,Q9Y4K6

> <UniProt (SwissProt) Alternative ID(s) of Target Chain>


> <UniProt (TrEMBL) Submitted Name of Target Chain>


> <UniProt (TrEMBL) Entry Name of Target Chain>


> <UniProt (TrEMBL) Primary ID of Target Chain>


> <UniProt (TrEMBL) Secondary ID(s) of Target Chain>


> <UniProt (TrEMBL) Alternative ID(s) of Target Chain>


$$$$
BindingDB_50185247_mol_1

Vconf v2.0 Academic SN VC001-00000579
 24 27  0  0  0  0  0  0  0  0999 V2000
    0.2799   -1.3817    0.0000 C   0  0  0  0  0  0  0  0  0  0  0
   -0.4529   -1.0438    0.0000 C   0  0  0  0  0  0  0  0  0  0  0
    0.1315   -0.6360    0.0000 C   0  0  0  0  0  0  0  0  0  0  0
   -1.2749   -1.3966    0.0000 C   0  0  0  0  0  0  0  0  0  0  0
    0.0277    0.1909    0.0000 C   0  0  0  0  0  0  0  0  0  0  0
   -0.5924   -0.3111    0.0000 N   0  3  0  0  0  0  0  0  0  0  0
   -1.3786   -0.6576    0.0000 C   0  0  0  0  0  0  0  0  0  0  0
   -0.5547    0.5654    0.0000 C   0  0  0  0  0  0  0  0  0  0  0
   -4.2389    1.8125    0.0000 C   0  0  0  0  0  0  0  0  0  0  0
   -4.2401    0.9852    0.0000 C   0  0  0  0  0  0  0  0  0  0  0
   -3.5253    0.5723    0.0000 C   0  0  0  0  0  0  0  0  0  0  0
   -3.5271    2.2253    0.0000 C   0  0  0  0  0  0  0  0  0  0  0
   -2.8117    1.8162    0.0000 C   0  0  0  0  0  0  0  0  0  0  0
   -2.8109    0.9893    0.0000 C   0  0  0  0  0  0  0  0  0  0  0
   -2.0956    0.5784    0.0000 C   0  0  0  0  0  0  0  0  0  0  0
   -1.3806    0.9931    0.0000 C   0  0  0  0  0  0  0  0  0  0  0
   -1.3854    1.8231    0.0000 C   0  0  0  0  0  0  0  0  0  0  0
   -2.1013    2.2303    0.0000 N   0  0  0  0  0  0  0  0  0  0  0
   -4.9535    2.2249    0.0000 O   0  0  0  0  0  0  0  0  0  0  0
   -4.9537    3.0499    0.0000 C   0  0  0  0  0  0  0  0  0  0  0
   -2.0939   -0.2466    0.0000 C   0  0  1  0  0  0  0  0  0  0  0
   -2.8075   -0.6606    0.0000 O   0  0  0  0  0  0  0  0  0  0  0
    0.7907   -2.0295    0.0000 C   0  0  0  0  0  0  0  0  0  0  0
    0.4850   -2.7958    0.0000 C   0  0  0  0  0  0  0  0  0  0  0
  2  4  1  0  0  0  0
 13 12  4  0  0  0  0
 12  9  4  0  0  0  0
  2  5  1  0  0  0  0
  3  6  1  0  0  0  0
 13 14  4  0  0  0  0
  4  7  1  0  0  0  0
 14 15  4  0  0  0  0
  5  8  1  0  0  0  0
 15 16  4  0  0  0  0
  6  7  1  0  0  0  0
 16 17  4  0  0  0  0
  6  8  1  0  0  0  0
 17 18  4  0  0  0  0
 18 13  4  0  0  0  0
  9 19  1  0  0  0  0
  1  2  1  0  0  0  0
 19 20  1  0  0  0  0
  9 10  4  0  0  0  0
 15 21  1  0  0  0  0
  1  3  1  0  0  0  0
 21 22  1  0  0  0  0
 21  7  1  6  0  0  0
 10 11  4  0  0  0  0
  1 23  1  0  0  0  0
 11 14  4  0  0  0  0
 23 24  2  0  0  0  0
M  CHG  1   6   1
M  END
> <From>
www.bindingDB.org

> <BindingDB Reactant_set_id>
50506539

> <Ligand InChI>
InChI=1S/C28H36ClN6O2P/c1-37-25-17-20(35-16-13-21(19-35)34-14-7-4-8-15-34)11-12-23(25)32-28-30-18-22(29)27(33-28)31-24-9-5-6-10-26(24)38(2,3)36/h5-6,9-12,17-18,21H,4,7-8,13-16,19H2,1-3H3,(H2,30,31,32,33)

> <Ligand InChI Key>
UETYAVAIGWIDEO-UHFFFAOYSA-N

> <BindingDB MonomerID>
50185247

> <BindingDB Ligand Name>
CHEMBL3823243

> <Target Name Assigned by Curator or DataSource>
ALK tyrosine kinase receptor

> <Target Source Organism According to Curator or DataSource>
Homo sapiens

> <Ki (nM)>


> <IC50 (nM)>
 0.880000

> <Kd (nM)>


> <EC50 (nM)>


> <kon (M-1-s-1)>


> <koff (s-1)>


> <pH>


> <Temp C>


> <Curation/DataSource>
ChEMBL

> <Article DOI>
10.1021/acs.jmedchem.6b00306

> <PMID>
27144831

> <PubChem AID>


> <Patent Number>


> <Authors>
Huang, WS; Liu, S; Zou, D; Thomas, M; Wang, Y; Zhou, T; Romero, J; Kohlmann, A; Li, F; Qi, J; Cai, L; Dwight, TA; Xu, Y; Xu, R; Dodd, R; Toms, A; Parillon, L; Lu, X; Anjum, R; Zhang, S; Wang, F; Keats, J; Wardwell, SD; Ning, Y; Xu, Q; Moran, LE; Mohemmad, QK; Jang, HG; Clackson, T; Narasimhan, NI; Rivera, VM; Zhu, X; Dalgarno, D; Shakespeare, WC

> <Institution>
ARIAD Pharmaceuticals, Inc.

> <Link to Ligand in BindingDB>
http://www.bindingdb.org/bind/chemsearch/marvin/MolStructure.jsp?monomerid=50185247

> <Link to Ligand-Target Pair in BindingDB>
http://www.bindingdb.org/jsp/dbsearch/PrimarySearch_ki.jsp?energyterm=kJ/mole&tag=pol&polymerid=5809&target=ALK+tyrosine+kinase+receptor&column=ki&startPg=0&Increment=50&submit=Search

> <Link to Ligand-Target Pair in BindingDB>
http://www.bindingdb.org/jsp/dbsearch/PrimarySearch_ki.jsp?energyterm=kJ/mole&tag=r21&monomerid=50185247&enzyme=ALK+tyrosine+kinase+receptor&column=ki&startPg=0&Increment=50&submit=Search

> <Ligand HET ID in PDB>


> <PDB ID(s) for Ligand-Target Complex>


> <PubChem CID>
68166178

> <PubChem SID>
104069467

> <ChEBI ID of Ligand>


> <ChEMBL ID of Ligand>
CHEMBL3823243

> <DrugBank ID of Ligand>


> <IUPHAR_GRAC ID of Ligand>


> <KEGG ID of Ligand>


> <ZINC ID of Ligand>
ZINC36151802

> <Number of Protein Chains in Target (>1 implies a multichain complex)>
1

> <BindingDB Target Chain Sequence>
MGAIGLLWLLPLLLSTAAVGSGMGTGQRAGSPAAGPPLQPREPLSYSRLQRKSLAVDFVVPSLFRVYARDLLLPPSSSELKAGRPEARGSLALDCAPLLRLLGPAPGVSWTAGSPAPAEARTLSRVLKGGSVRKLRRAKQLVLELGEEAILEGCVGPPGEAAVGLLQFNLSELFSWWIRQGEGRLRIRLMPEKKASEVGREGRLSAAIRASQPRLLFQIFGTGHSSLESPTNMPSPSPDYFTWNLTWIMKDSFPFLSHRSRYGLECSFDFPCELEYSPPLHDLRNQSWSWRRIPSEEASQMDLLDGPGAERSKEMPRGSFLLLNTSADSKHTILSPWMRSSSEHCTLAVSVHRHLQPSGRYIAQLLPHNEAAREILLMPTPGKHGWTVLQGRIGRPDNPFRVALEYISSGNRSLSAVDFFALKNCSEGTSPGSKMALQSSFTCWNGTVLQLGQACDFHQDCAQGEDESQMCRKLPVGFYCNFEDGFCGWTQGTLSPHTPQWQVRTLKDARFQDHQDHALLLSTTDVPASESATVTSATFPAPIKSSPCELRMSWLIRGVLRGNVSLVLVENKTGKEQGRMVWHVAAYEGLSLWQWMVLPLLDVSDRFWLQMVAWWGQGSRAIVAFDNISISLDCYLTISGEDKILQNTAPKSRNLFERNPNKELKPGENSPRQTPIFDPTVHWLFTTCGASGPHGPTQAQCNNAYQNSNLSVEVGSEGPLKGIQIWKVPATDTYSISGYGAAGGKGGKNTMMRSHGVSVLGIFNLEKDDMLYILVGQQGEDACPSTNQLIQKVCIGENNVIEEEIRVNRSVHEWAGGGGGGGGATYVFKMKDGVPVPLIIAAGGGGRAYGAKTDTFHPERLENNSSVLGLNGNSGAAGGGGGWNDNTSLLWAGKSLQEGATGGHSCPQAMKKWGWETRGGFGGGGGGCSSGGGGGGYIGGNAASNNDPEMDGEDGVSFISPLGILYTPALKVMEGHGEVNIKHYLNCSHCEVDECHMDPESHKVICFCDHGTVLAEDGVSCIVSPTPEPHLPLSLILSVVTSALVAALVLAFSGIMIVYRRKHQELQAMQMELQSPEYKLSKLRTSTIMTDYNPNYCFAGKTSSISDLKEVPRKNITLIRGLGHGAFGEVYEGQVSGMPNDPSPLQVAVKTLPEVCSEQDELDFLMEALIISKFNHQNIVRCIGVSLQSLPRFILLELMAGGDLKSFLRETRPRPSQPSSLAMLDLLHVARDIACGCQYLEENHFIHRDIAARNCLLTCPGPGRVAKIGDFGMARDIYRASYYRKGGCAMLPVKWMPPEAFMEGIFTSKTDTWSFGVLLWEIFSLGYMPYPSKSNQEVLEFVTSGGRMDPPKNCPGPVYRIMTQCWQHQPEDRPNFAIILERIEYCTQDPDVINTALPIEYGPLVEEEEKVPVRPKDPEGVPPLLVSQQAKREEERSPAAPPPLPTTSSGKAAKKPTAAEISVRVPRGPAVEGGHVNMAFSQSNPPSELHKVHGSRNKPTSLWNPTYGSWFTEKPTKKNNPIAKKEPHDRGNLGLEGSCTVPPNVATGRLPGASLLLEPSSLTANMKEVPLFRLRHFPCGNVNYGYQQQGLPLEAATAPGAGHYEDTILKSKNSMNQPGP

> <PDB ID(s) of Target Chain>
2XB7,2XBA,3AOX,5FTO,5FTQ,6E0R,6EBW,6EDL,6MX8

> <UniProt (SwissProt) Recommended Name of Target Chain>
ALK tyrosine kinase receptor

> <UniProt (SwissProt) Entry Name of Target Chain>
ALK_HUMAN

> <UniProt (SwissProt) Primary ID of Target Chain>
Q9UM73

> <UniProt (SwissProt) Secondary ID(s) of Target Chain>
Q4ZFX9,Q53QQ6,Q53RZ4,Q59FI3,Q9Y4K6

> <UniProt (SwissProt) Alternative ID(s) of Target Chain>


> <UniProt (TrEMBL) Submitted Name of Target Chain>


> <UniProt (TrEMBL) Entry Name of Target Chain>


> <UniProt (TrEMBL) Primary ID of Target Chain>


> <UniProt (TrEMBL) Secondary ID(s) of Target Chain>


> <UniProt (TrEMBL) Alternative ID(s) of Target Chain>


$$$$
BindingDB_50185265_mol_1

Vconf v2.0 Academic SN VC001-00000579
 21 23  0  0  0  0  0  0  0  0999 V2000
   -1.3249   -2.5652    0.0000 C   0  0  0  0  0  0  0  0  0  0  0
   -1.3267   -3.3897    0.0000 C   0  0  0  0  0  0  0  0  0  0  0
   -0.6103   -3.8029    0.0000 C   0  0  0  0  0  0  0  0  0  0  0
   -0.6130   -2.1522    0.0000 C   0  0  0  0  0  0  0  0  0  0  0
    0.1044   -2.5596    0.0000 C   0  0  0  0  0  0  0  0  0  0  0
    0.1048   -3.3898    0.0000 C   0  0  0  0  0  0  0  0  0  0  0
    0.8942   -3.6495    0.0000 N   0  0  0  0  0  0  0  0  0  0  0
    1.3843   -2.9763    0.0000 C   0  0  0  0  0  0  0  0  0  0  0
    0.8936   -2.3036    0.0000 C   0  0  0  0  0  0  0  0  0  0  0
    1.1462   -1.5186    0.0000 C   0  0  0  0  0  0  0  0  0  0  0
    1.9564   -1.3458    0.0000 C   0  0  0  0  0  0  0  0  0  0  0
    0.5664   -0.9346    0.0000 O   0  0  0  0  0  0  0  0  0  0  0
    2.5404   -1.9298    0.0000 O   0  0  0  0  0  0  0  0  0  0  0
    2.1674   -0.5508    0.0000 N   0  0  0  0  0  0  0  0  0  0  0
    2.9667   -0.3356    0.0000 C   0  0  0  0  0  0  0  0  0  0  0
    3.1777    0.4595    0.0000 C   0  0  0  0  0  0  0  0  0  0  0
    2.6610    1.0999    0.0000 N   0  0  0  0  0  0  0  0  0  0  0
    3.1091    1.7924    0.0000 C   0  0  0  0  0  0  0  0  0  0  0
    3.9054    1.5812    0.0000 C   0  0  0  0  0  0  0  0  0  0  0
    3.9540    0.7580    0.0000 C   0  0  0  0  0  0  0  0  0  0  0
    1.8377    1.0525    0.0000 C   0  0  0  0  0  0  0  0  0  0  0
  9 10  1  0  0  0  0
  5  6  4  0  0  0  0
 10 11  1  0  0  0  0
 10 12  2  0  0  0  0
  2  3  4  0  0  0  0
 11 13  2  0  0  0  0
  3  6  4  0  0  0  0
 11 14  1  0  0  0  0
  1  2  4  0  0  0  0
 14 15  1  0  0  0  0
  5  4  4  0  0  0  0
 15 16  1  0  0  0  0
 16 17  4  0  0  0  0
  6  7  4  0  0  0  0
  7  8  4  0  0  0  0
  8  9  4  0  0  0  0
  9  5  4  0  0  0  0
 17 18  4  0  0  0  0
 18 19  4  0  0  0  0
 19 20  4  0  0  0  0
 20 16  4  0  0  0  0
  4  1  4  0  0  0  0
 17 21  1  0  0  0  0
M  STY  1   1 DAT
M  SAL   1  1   7
M  SDT   1 MRV_IMPLICIT_H                                        
M  SDD   1     0.0000    0.0000    DR    ALL  0       0  
M  SED   1 IMPL_H1
M  END
> <From>
www.bindingDB.org

> <BindingDB Reactant_set_id>
50506543

> <Ligand InChI>
InChI=1S/C30H41ClN7O2P/c1-36-14-7-15-37(19-18-36)22-12-16-38(17-13-22)23-10-11-25(27(20-23)40-2)34-30-32-21-24(31)29(35-30)33-26-8-5-6-9-28(26)41(3,4)39/h5-6,8-11,20-22H,7,12-19H2,1-4H3,(H2,32,33,34,35)

> <Ligand InChI Key>
ZRFJCNOHKKQRSS-UHFFFAOYSA-N

> <BindingDB MonomerID>
50185265

> <BindingDB Ligand Name>
CHEMBL3824290

> <Target Name Assigned by Curator or DataSource>
ALK tyrosine kinase receptor

> <Target Source Organism According to Curator or DataSource>
Homo sapiens

> <Ki (nM)>


> <IC50 (nM)>
 0.490000

> <Kd (nM)>


> <EC50 (nM)>


> <kon (M-1-s-1)>


> <koff (s-1)>


> <pH>


> <Temp C>


> <Curation/DataSource>
ChEMBL

> <Article DOI>
10.1021/acs.jmedchem.6b00306

> <PMID>
27144831

> <PubChem AID>


> <Patent Number>


> <Authors>
Huang, WS; Liu, S; Zou, D; Thomas, M; Wang, Y; Zhou, T; Romero, J; Kohlmann, A; Li, F; Qi, J; Cai, L; Dwight, TA; Xu, Y; Xu, R; Dodd, R; Toms, A; Parillon, L; Lu, X; Anjum, R; Zhang, S; Wang, F; Keats, J; Wardwell, SD; Ning, Y; Xu, Q; Moran, LE; Mohemmad, QK; Jang, HG; Clackson, T; Narasimhan, NI; Rivera, VM; Zhu, X; Dalgarno, D; Shakespeare, WC

> <Institution>
ARIAD Pharmaceuticals, Inc.

> <Link to Ligand in BindingDB>
http://www.bindingdb.org/bind/chemsearch/marvin/MolStructure.jsp?monomerid=50185265

> <Link to Ligand-Target Pair in BindingDB>
http://www.bindingdb.org/jsp/dbsearch/PrimarySearch_ki.jsp?energyterm=kJ/mole&tag=pol&polymerid=5809&target=ALK+tyrosine+kinase+receptor&column=ki&startPg=0&Increment=50&submit=Search

> <Link to Ligand-Target Pair in BindingDB>
http://www.bindingdb.org/jsp/dbsearch/PrimarySearch_ki.jsp?energyterm=kJ/mole&tag=r21&monomerid=50185265&enzyme=ALK+tyrosine+kinase+receptor&column=ki&startPg=0&Increment=50&submit=Search

> <Ligand HET ID in PDB>


> <PDB ID(s) for Ligand-Target Complex>


> <PubChem CID>
68165354

> <PubChem SID>
104069485

> <ChEBI ID of Ligand>


> <ChEMBL ID of Ligand>
CHEMBL3824290

> <DrugBank ID of Ligand>


> <IUPHAR_GRAC ID of Ligand>


> <KEGG ID of Ligand>


> <ZINC ID of Ligand>
ZINC13685559

> <Number of Protein Chains in Target (>1 implies a multichain complex)>
1

> <BindingDB Target Chain Sequence>
MGAIGLLWLLPLLLSTAAVGSGMGTGQRAGSPAAGPPLQPREPLSYSRLQRKSLAVDFVVPSLFRVYARDLLLPPSSSELKAGRPEARGSLALDCAPLLRLLGPAPGVSWTAGSPAPAEARTLSRVLKGGSVRKLRRAKQLVLELGEEAILEGCVGPPGEAAVGLLQFNLSELFSWWIRQGEGRLRIRLMPEKKASEVGREGRLSAAIRASQPRLLFQIFGTGHSSLESPTNMPSPSPDYFTWNLTWIMKDSFPFLSHRSRYGLECSFDFPCELEYSPPLHDLRNQSWSWRRIPSEEASQMDLLDGPGAERSKEMPRGSFLLLNTSADSKHTILSPWMRSSSEHCTLAVSVHRHLQPSGRYIAQLLPHNEAAREILLMPTPGKHGWTVLQGRIGRPDNPFRVALEYISSGNRSLSAVDFFALKNCSEGTSPGSKMALQSSFTCWNGTVLQLGQACDFHQDCAQGEDESQMCRKLPVGFYCNFEDGFCGWTQGTLSPHTPQWQVRTLKDARFQDHQDHALLLSTTDVPASESATVTSATFPAPIKSSPCELRMSWLIRGVLRGNVSLVLVENKTGKEQGRMVWHVAAYEGLSLWQWMVLPLLDVSDRFWLQMVAWWGQGSRAIVAFDNISISLDCYLTISGEDKILQNTAPKSRNLFERNPNKELKPGENSPRQTPIFDPTVHWLFTTCGASGPHGPTQAQCNNAYQNSNLSVEVGSEGPLKGIQIWKVPATDTYSISGYGAAGGKGGKNTMMRSHGVSVLGIFNLEKDDMLYILVGQQGEDACPSTNQLIQKVCIGENNVIEEEIRVNRSVHEWAGGGGGGGGATYVFKMKDGVPVPLIIAAGGGGRAYGAKTDTFHPERLENNSSVLGLNGNSGAAGGGGGWNDNTSLLWAGKSLQEGATGGHSCPQAMKKWGWETRGGFGGGGGGCSSGGGGGGYIGGNAASNNDPEMDGEDGVSFISPLGILYTPALKVMEGHGEVNIKHYLNCSHCEVDECHMDPESHKVICFCDHGTVLAEDGVSCIVSPTPEPHLPLSLILSVVTSALVAALVLAFSGIMIVYRRKHQELQAMQMELQSPEYKLSKLRTSTIMTDYNPNYCFAGKTSSISDLKEVPRKNITLIRGLGHGAFGEVYEGQVSGMPNDPSPLQVAVKTLPEVCSEQDELDFLMEALIISKFNHQNIVRCIGVSLQSLPRFILLELMAGGDLKSFLRETRPRPSQPSSLAMLDLLHVARDIACGCQYLEENHFIHRDIAARNCLLTCPGPGRVAKIGDFGMARDIYRASYYRKGGCAMLPVKWMPPEAFMEGIFTSKTDTWSFGVLLWEIFSLGYMPYPSKSNQEVLEFVTSGGRMDPPKNCPGPVYRIMTQCWQHQPEDRPNFAIILERIEYCTQDPDVINTALPIEYGPLVEEEEKVPVRPKDPEGVPPLLVSQQAKREEERSPAAPPPLPTTSSGKAAKKPTAAEISVRVPRGPAVEGGHVNMAFSQSNPPSELHKVHGSRNKPTSLWNPTYGSWFTEKPTKKNNPIAKKEPHDRGNLGLEGSCTVPPNVATGRLPGASLLLEPSSLTANMKEVPLFRLRHFPCGNVNYGYQQQGLPLEAATAPGAGHYEDTILKSKNSMNQPGP

> <PDB ID(s) of Target Chain>
2XB7,2XBA,3AOX,5FTO,5FTQ,6E0R,6EBW,6EDL,6MX8

> <UniProt (SwissProt) Recommended Name of Target Chain>
ALK tyrosine kinase receptor

> <UniProt (SwissProt) Entry Name of Target Chain>
ALK_HUMAN

> <UniProt (SwissProt) Primary ID of Target Chain>
Q9UM73

> <UniProt (SwissProt) Secondary ID(s) of Target Chain>
Q4ZFX9,Q53QQ6,Q53RZ4,Q59FI3,Q9Y4K6

> <UniProt (SwissProt) Alternative ID(s) of Target Chain>


> <UniProt (TrEMBL) Submitted Name of Target Chain>


> <UniProt (TrEMBL) Entry Name of Target Chain>


> <UniProt (TrEMBL) Primary ID of Target Chain>


> <UniProt (TrEMBL) Secondary ID(s) of Target Chain>


> <UniProt (TrEMBL) Alternative ID(s) of Target Chain>


$$$$
BindingDB_50185267_mol_1

Vconf v2.0 Academic SN VC001-00000579
 20 22  0  0  0  0  0  0  0  0999 V2000
   -4.0284   -7.2882    0.0000 C   0  0  0  0  0  0  0  0  0  0  0
   -4.5531   -7.9279    0.0000 C   0  0  0  0  0  0  0  0  0  0  0
   -4.2612   -8.7000    0.0000 C   0  0  0  0  0  0  0  0  0  0  0
   -3.2161   -7.4194    0.0000 C   0  0  0  0  0  0  0  0  0  0  0
   -2.9214   -8.1890    0.0000 C   0  0  0  0  0  0  0  0  0  0  0
   -3.4473   -8.8324    0.0000 C   0  0  0  0  0  0  0  0  0  0  0
   -2.9979   -9.5315    0.0000 N   0  0  0  0  0  0  0  0  0  0  0
   -2.1941   -9.3201    0.0000 C   0  0  0  0  0  0  0  0  0  0  0
   -2.1469   -8.4904    0.0000 C   0  0  0  0  0  0  0  0  0  0  0
   -1.4530   -8.0442    0.0000 C   0  0  0  0  0  0  0  0  0  0  0
   -0.7196   -8.4221    0.0000 C   0  0  0  0  0  0  0  0  0  0  0
   -1.4924   -7.2202    0.0000 O   0  0  0  0  0  0  0  0  0  0  0
   -0.6802   -9.2462    0.0000 O   0  0  0  0  0  0  0  0  0  0  0
   -0.0257   -7.9759    0.0000 N   0  0  0  0  0  0  0  0  0  0  0
    0.7077   -8.3538    0.0000 C   0  0  0  0  0  0  0  0  0  0  0
    1.4016   -7.9077    0.0000 C   0  0  0  0  0  0  0  0  0  0  0
    2.1685   -8.2068    0.0000 N   0  0  0  0  0  0  0  0  0  0  0
    2.6906   -7.5681    0.0000 C   0  0  0  0  0  0  0  0  0  0  0
    2.2444   -6.8741    0.0000 C   0  0  0  0  0  0  0  0  0  0  0
    1.4466   -7.0841    0.0000 N   0  0  0  0  0  0  0  0  0  0  0
  4  1  4  0  0  0  0
  9 10  1  0  0  0  0
  5  6  4  0  0  0  0
 10 11  1  0  0  0  0
 10 12  2  0  0  0  0
  2  3  4  0  0  0  0
 11 13  2  0  0  0  0
  3  6  4  0  0  0  0
 11 14  1  0  0  0  0
  1  2  4  0  0  0  0
 14 15  1  0  0  0  0
  5  4  4  0  0  0  0
 15 16  1  0  0  0  0
 16 17  4  0  0  0  0
  6  7  4  0  0  0  0
  7  8  4  0  0  0  0
  8  9  4  0  0  0  0
  9  5  4  0  0  0  0
 17 18  4  0  0  0  0
 18 19  4  0  0  0  0
 19 20  4  0  0  0  0
 20 16  4  0  0  0  0
M  STY  2   1 DAT   2 DAT
M  SAL   1  1   7
M  SDT   1 MRV_IMPLICIT_H                                        
M  SDD   1     0.0000    0.0000    DR    ALL  0       0  
M  SED   1 IMPL_H1
M  SAL   2  1  20
M  SDT   2 MRV_IMPLICIT_H                                        
M  SDD   2     0.0000    0.0000    DR    ALL  0       0  
M  SED   2 IMPL_H1
M  END
> <From>
www.bindingDB.org

> <BindingDB Reactant_set_id>
50506563

> <Ligand InChI>
InChI=1S/C28H36ClN6O3P/c1-37-25-18-21(34-12-10-20(11-13-34)35-14-16-38-17-15-35)8-9-23(25)32-28-30-19-22(29)27(33-28)31-24-6-4-5-7-26(24)39(2,3)36/h4-9,18-20H,10-17H2,1-3H3,(H2,30,31,32,33)

> <Ligand InChI Key>
SWDUUFOEGXYQAO-UHFFFAOYSA-N

> <BindingDB MonomerID>
50185267

> <BindingDB Ligand Name>
CHEMBL3822557

> <Target Name Assigned by Curator or DataSource>
ALK tyrosine kinase receptor

> <Target Source Organism According to Curator or DataSource>
Homo sapiens

> <Ki (nM)>


> <IC50 (nM)>
 0.490000

> <Kd (nM)>


> <EC50 (nM)>


> <kon (M-1-s-1)>


> <koff (s-1)>


> <pH>


> <Temp C>


> <Curation/DataSource>
ChEMBL

> <Article DOI>
10.1021/acs.jmedchem.6b00306

> <PMID>
27144831

> <PubChem AID>


> <Patent Number>


> <Authors>
Huang, WS; Liu, S; Zou, D; Thomas, M; Wang, Y; Zhou, T; Romero, J; Kohlmann, A; Li, F; Qi, J; Cai, L; Dwight, TA; Xu, Y; Xu, R; Dodd, R; Toms, A; Parillon, L; Lu, X; Anjum, R; Zhang, S; Wang, F; Keats, J; Wardwell, SD; Ning, Y; Xu, Q; Moran, LE; Mohemmad, QK; Jang, HG; Clackson, T; Narasimhan, NI; Rivera, VM; Zhu, X; Dalgarno, D; Shakespeare, WC

> <Institution>
ARIAD Pharmaceuticals, Inc.

> <Link to Ligand in BindingDB>
http://www.bindingdb.org/bind/chemsearch/marvin/MolStructure.jsp?monomerid=50185267

> <Link to Ligand-Target Pair in BindingDB>
http://www.bindingdb.org/jsp/dbsearch/PrimarySearch_ki.jsp?energyterm=kJ/mole&tag=pol&polymerid=5809&target=ALK+tyrosine+kinase+receptor&column=ki&startPg=0&Increment=50&submit=Search

> <Link to Ligand-Target Pair in BindingDB>
http://www.bindingdb.org/jsp/dbsearch/PrimarySearch_ki.jsp?energyterm=kJ/mole&tag=r21&monomerid=50185267&enzyme=ALK+tyrosine+kinase+receptor&column=ki&startPg=0&Increment=50&submit=Search

> <Ligand HET ID in PDB>


> <PDB ID(s) for Ligand-Target Complex>


> <PubChem CID>
89774514

> <PubChem SID>
104069487

> <ChEBI ID of Ligand>


> <ChEMBL ID of Ligand>
CHEMBL3822557

> <DrugBank ID of Ligand>


> <IUPHAR_GRAC ID of Ligand>


> <KEGG ID of Ligand>


> <ZINC ID of Ligand>
ZINC13685627

> <Number of Protein Chains in Target (>1 implies a multichain complex)>
1

> <BindingDB Target Chain Sequence>
MGAIGLLWLLPLLLSTAAVGSGMGTGQRAGSPAAGPPLQPREPLSYSRLQRKSLAVDFVVPSLFRVYARDLLLPPSSSELKAGRPEARGSLALDCAPLLRLLGPAPGVSWTAGSPAPAEARTLSRVLKGGSVRKLRRAKQLVLELGEEAILEGCVGPPGEAAVGLLQFNLSELFSWWIRQGEGRLRIRLMPEKKASEVGREGRLSAAIRASQPRLLFQIFGTGHSSLESPTNMPSPSPDYFTWNLTWIMKDSFPFLSHRSRYGLECSFDFPCELEYSPPLHDLRNQSWSWRRIPSEEASQMDLLDGPGAERSKEMPRGSFLLLNTSADSKHTILSPWMRSSSEHCTLAVSVHRHLQPSGRYIAQLLPHNEAAREILLMPTPGKHGWTVLQGRIGRPDNPFRVALEYISSGNRSLSAVDFFALKNCSEGTSPGSKMALQSSFTCWNGTVLQLGQACDFHQDCAQGEDESQMCRKLPVGFYCNFEDGFCGWTQGTLSPHTPQWQVRTLKDARFQDHQDHALLLSTTDVPASESATVTSATFPAPIKSSPCELRMSWLIRGVLRGNVSLVLVENKTGKEQGRMVWHVAAYEGLSLWQWMVLPLLDVSDRFWLQMVAWWGQGSRAIVAFDNISISLDCYLTISGEDKILQNTAPKSRNLFERNPNKELKPGENSPRQTPIFDPTVHWLFTTCGASGPHGPTQAQCNNAYQNSNLSVEVGSEGPLKGIQIWKVPATDTYSISGYGAAGGKGGKNTMMRSHGVSVLGIFNLEKDDMLYILVGQQGEDACPSTNQLIQKVCIGENNVIEEEIRVNRSVHEWAGGGGGGGGATYVFKMKDGVPVPLIIAAGGGGRAYGAKTDTFHPERLENNSSVLGLNGNSGAAGGGGGWNDNTSLLWAGKSLQEGATGGHSCPQAMKKWGWETRGGFGGGGGGCSSGGGGGGYIGGNAASNNDPEMDGEDGVSFISPLGILYTPALKVMEGHGEVNIKHYLNCSHCEVDECHMDPESHKVICFCDHGTVLAEDGVSCIVSPTPEPHLPLSLILSVVTSALVAALVLAFSGIMIVYRRKHQELQAMQMELQSPEYKLSKLRTSTIMTDYNPNYCFAGKTSSISDLKEVPRKNITLIRGLGHGAFGEVYEGQVSGMPNDPSPLQVAVKTLPEVCSEQDELDFLMEALIISKFNHQNIVRCIGVSLQSLPRFILLELMAGGDLKSFLRETRPRPSQPSSLAMLDLLHVARDIACGCQYLEENHFIHRDIAARNCLLTCPGPGRVAKIGDFGMARDIYRASYYRKGGCAMLPVKWMPPEAFMEGIFTSKTDTWSFGVLLWEIFSLGYMPYPSKSNQEVLEFVTSGGRMDPPKNCPGPVYRIMTQCWQHQPEDRPNFAIILERIEYCTQDPDVINTALPIEYGPLVEEEEKVPVRPKDPEGVPPLLVSQQAKREEERSPAAPPPLPTTSSGKAAKKPTAAEISVRVPRGPAVEGGHVNMAFSQSNPPSELHKVHGSRNKPTSLWNPTYGSWFTEKPTKKNNPIAKKEPHDRGNLGLEGSCTVPPNVATGRLPGASLLLEPSSLTANMKEVPLFRLRHFPCGNVNYGYQQQGLPLEAATAPGAGHYEDTILKSKNSMNQPGP

> <PDB ID(s) of Target Chain>
2XB7,2XBA,3AOX,5FTO,5FTQ,6E0R,6EBW,6EDL,6MX8

> <UniProt (SwissProt) Recommended Name of Target Chain>
ALK tyrosine kinase receptor

> <UniProt (SwissProt) Entry Name of Target Chain>
ALK_HUMAN

> <UniProt (SwissProt) Primary ID of Target Chain>
Q9UM73

> <UniProt (SwissProt) Secondary ID(s) of Target Chain>
Q4ZFX9,Q53QQ6,Q53RZ4,Q59FI3,Q9Y4K6

> <UniProt (SwissProt) Alternative ID(s) of Target Chain>


> <UniProt (TrEMBL) Submitted Name of Target Chain>


> <UniProt (TrEMBL) Entry Name of Target Chain>


> <UniProt (TrEMBL) Primary ID of Target Chain>


> <UniProt (TrEMBL) Secondary ID(s) of Target Chain>


> <UniProt (TrEMBL) Alternative ID(s) of Target Chain>


$$$$
BindingDB_50185268_mol_1

Vconf v2.0 Academic SN VC001-00000579
 23 25  0  0  0  0  0  0  0  0999 V2000
    8.1757   -3.0049    0.0000 C   0  0  0  0  0  0  0  0  0  0  0
    7.6510   -3.6446    0.0000 C   0  0  0  0  0  0  0  0  0  0  0
    7.9430   -4.4167    0.0000 C   0  0  0  0  0  0  0  0  0  0  0
    8.9881   -3.1360    0.0000 C   0  0  0  0  0  0  0  0  0  0  0
    9.2828   -3.9056    0.0000 C   0  0  0  0  0  0  0  0  0  0  0
    8.7569   -4.5491    0.0000 C   0  0  0  0  0  0  0  0  0  0  0
    9.2063   -5.2482    0.0000 N   0  0  0  0  0  0  0  0  0  0  0
   10.0101   -5.0367    0.0000 C   0  0  0  0  0  0  0  0  0  0  0
   10.0573   -4.2071    0.0000 C   0  0  0  0  0  0  0  0  0  0  0
   10.7512   -3.7609    0.0000 C   0  0  0  0  0  0  0  0  0  0  0
   11.4846   -4.1388    0.0000 C   0  0  0  0  0  0  0  0  0  0  0
   10.7118   -2.9368    0.0000 O   0  0  0  0  0  0  0  0  0  0  0
   11.5240   -4.9628    0.0000 O   0  0  0  0  0  0  0  0  0  0  0
   12.1785   -3.6926    0.0000 N   0  0  0  0  0  0  0  0  0  0  0
   12.9119   -4.0705    0.0000 C   0  0  0  0  0  0  0  0  0  0  0
   13.6058   -3.6243    0.0000 C   0  0  0  0  0  0  0  0  0  0  0
   14.3743   -3.9192    0.0000 S   0  0  0  0  0  0  0  0  0  0  0
   13.6524   -2.7965    0.0000 C   0  0  0  0  0  0  0  0  0  0  0
   14.4502   -2.5865    0.0000 C   0  0  0  0  0  0  0  0  0  0  0
   14.8921   -3.2795    0.0000 C   0  0  0  0  0  0  0  0  0  0  0
    7.8833   -2.2333    0.0000 N   0  3  0  0  0  0  0  0  0  0  0
    7.0691   -2.1004    0.0000 O   0  0  0  0  0  0  0  0  0  0  0
    8.4055   -1.5946    0.0000 O   0  5  0  0  0  0  0  0  0  0  0
 10 11  1  0  0  0  0
 10 12  2  0  0  0  0
  2  3  4  0  0  0  0
 11 13  2  0  0  0  0
  3  6  4  0  0  0  0
 11 14  1  0  0  0  0
  1  2  4  0  0  0  0
 14 15  1  0  0  0  0
  5  4  4  0  0  0  0
 15 16  1  0  0  0  0
 16 17  4  0  0  0  0
  6  7  4  0  0  0  0
  7  8  4  0  0  0  0
 17 20  4  0  0  0  0
 19 18  4  0  0  0  0
 18 16  4  0  0  0  0
  8  9  4  0  0  0  0
  9  5  4  0  0  0  0
 19 20  4  0  0  0  0
  4  1  4  0  0  0  0
  9 10  1  0  0  0  0
  5  6  4  0  0  0  0
 21 22  2  0  0  0  0
 21 23  1  0  0  0  0
  1 21  1  0  0  0  0
M  CHG  1  21   1
M  CHG  1  23  -1
M  STY  1   1 DAT
M  SAL   1  1   7
M  SDT   1 MRV_IMPLICIT_H                                        
M  SDD   1     0.0000    0.0000    DR    ALL  0       0  
M  SED   1 IMPL_H1
M  END
> <From>
www.bindingDB.org

> <BindingDB Reactant_set_id>
50506564

> <Ligand InChI>
InChI=1S/C29H39ClN7O2P/c1-35-13-11-21(12-14-35)36-15-17-37(18-16-36)22-9-10-24(26(19-22)39-2)33-29-31-20-23(30)28(34-29)32-25-7-5-6-8-27(25)40(3,4)38/h5-10,19-21H,11-18H2,1-4H3,(H2,31,32,33,34)

> <Ligand InChI Key>
QSLMZWGPJXKPBS-UHFFFAOYSA-N

> <BindingDB MonomerID>
50185268

> <BindingDB Ligand Name>
CHEMBL3824327

> <Target Name Assigned by Curator or DataSource>
ALK tyrosine kinase receptor

> <Target Source Organism According to Curator or DataSource>
Homo sapiens

> <Ki (nM)>


> <IC50 (nM)>
 0.280000

> <Kd (nM)>


> <EC50 (nM)>


> <kon (M-1-s-1)>


> <koff (s-1)>


> <pH>


> <Temp C>


> <Curation/DataSource>
ChEMBL

> <Article DOI>
10.1021/acs.jmedchem.6b00306

> <PMID>
27144831

> <PubChem AID>


> <Patent Number>


> <Authors>
Huang, WS; Liu, S; Zou, D; Thomas, M; Wang, Y; Zhou, T; Romero, J; Kohlmann, A; Li, F; Qi, J; Cai, L; Dwight, TA; Xu, Y; Xu, R; Dodd, R; Toms, A; Parillon, L; Lu, X; Anjum, R; Zhang, S; Wang, F; Keats, J; Wardwell, SD; Ning, Y; Xu, Q; Moran, LE; Mohemmad, QK; Jang, HG; Clackson, T; Narasimhan, NI; Rivera, VM; Zhu, X; Dalgarno, D; Shakespeare, WC

> <Institution>
ARIAD Pharmaceuticals, Inc.

> <Link to Ligand in BindingDB>
http://www.bindingdb.org/bind/chemsearch/marvin/MolStructure.jsp?monomerid=50185268

> <Link to Ligand-Target Pair in BindingDB>
http://www.bindingdb.org/jsp/dbsearch/PrimarySearch_ki.jsp?energyterm=kJ/mole&tag=pol&polymerid=5809&target=ALK+tyrosine+kinase+receptor&column=ki&startPg=0&Increment=50&submit=Search

> <Link to Ligand-Target Pair in BindingDB>
http://www.bindingdb.org/jsp/dbsearch/PrimarySearch_ki.jsp?energyterm=kJ/mole&tag=r21&monomerid=50185268&enzyme=ALK+tyrosine+kinase+receptor&column=ki&startPg=0&Increment=50&submit=Search

> <Ligand HET ID in PDB>


> <PDB ID(s) for Ligand-Target Complex>


> <PubChem CID>
68165322

> <PubChem SID>
104069488

> <ChEBI ID of Ligand>


> <ChEMBL ID of Ligand>
CHEMBL3824327

> <DrugBank ID of Ligand>


> <IUPHAR_GRAC ID of Ligand>


> <KEGG ID of Ligand>


> <ZINC ID of Ligand>
ZINC13685586

> <Number of Protein Chains in Target (>1 implies a multichain complex)>
1

> <BindingDB Target Chain Sequence>
MGAIGLLWLLPLLLSTAAVGSGMGTGQRAGSPAAGPPLQPREPLSYSRLQRKSLAVDFVVPSLFRVYARDLLLPPSSSELKAGRPEARGSLALDCAPLLRLLGPAPGVSWTAGSPAPAEARTLSRVLKGGSVRKLRRAKQLVLELGEEAILEGCVGPPGEAAVGLLQFNLSELFSWWIRQGEGRLRIRLMPEKKASEVGREGRLSAAIRASQPRLLFQIFGTGHSSLESPTNMPSPSPDYFTWNLTWIMKDSFPFLSHRSRYGLECSFDFPCELEYSPPLHDLRNQSWSWRRIPSEEASQMDLLDGPGAERSKEMPRGSFLLLNTSADSKHTILSPWMRSSSEHCTLAVSVHRHLQPSGRYIAQLLPHNEAAREILLMPTPGKHGWTVLQGRIGRPDNPFRVALEYISSGNRSLSAVDFFALKNCSEGTSPGSKMALQSSFTCWNGTVLQLGQACDFHQDCAQGEDESQMCRKLPVGFYCNFEDGFCGWTQGTLSPHTPQWQVRTLKDARFQDHQDHALLLSTTDVPASESATVTSATFPAPIKSSPCELRMSWLIRGVLRGNVSLVLVENKTGKEQGRMVWHVAAYEGLSLWQWMVLPLLDVSDRFWLQMVAWWGQGSRAIVAFDNISISLDCYLTISGEDKILQNTAPKSRNLFERNPNKELKPGENSPRQTPIFDPTVHWLFTTCGASGPHGPTQAQCNNAYQNSNLSVEVGSEGPLKGIQIWKVPATDTYSISGYGAAGGKGGKNTMMRSHGVSVLGIFNLEKDDMLYILVGQQGEDACPSTNQLIQKVCIGENNVIEEEIRVNRSVHEWAGGGGGGGGATYVFKMKDGVPVPLIIAAGGGGRAYGAKTDTFHPERLENNSSVLGLNGNSGAAGGGGGWNDNTSLLWAGKSLQEGATGGHSCPQAMKKWGWETRGGFGGGGGGCSSGGGGGGYIGGNAASNNDPEMDGEDGVSFISPLGILYTPALKVMEGHGEVNIKHYLNCSHCEVDECHMDPESHKVICFCDHGTVLAEDGVSCIVSPTPEPHLPLSLILSVVTSALVAALVLAFSGIMIVYRRKHQELQAMQMELQSPEYKLSKLRTSTIMTDYNPNYCFAGKTSSISDLKEVPRKNITLIRGLGHGAFGEVYEGQVSGMPNDPSPLQVAVKTLPEVCSEQDELDFLMEALIISKFNHQNIVRCIGVSLQSLPRFILLELMAGGDLKSFLRETRPRPSQPSSLAMLDLLHVARDIACGCQYLEENHFIHRDIAARNCLLTCPGPGRVAKIGDFGMARDIYRASYYRKGGCAMLPVKWMPPEAFMEGIFTSKTDTWSFGVLLWEIFSLGYMPYPSKSNQEVLEFVTSGGRMDPPKNCPGPVYRIMTQCWQHQPEDRPNFAIILERIEYCTQDPDVINTALPIEYGPLVEEEEKVPVRPKDPEGVPPLLVSQQAKREEERSPAAPPPLPTTSSGKAAKKPTAAEISVRVPRGPAVEGGHVNMAFSQSNPPSELHKVHGSRNKPTSLWNPTYGSWFTEKPTKKNNPIAKKEPHDRGNLGLEGSCTVPPNVATGRLPGASLLLEPSSLTANMKEVPLFRLRHFPCGNVNYGYQQQGLPLEAATAPGAGHYEDTILKSKNSMNQPGP

> <PDB ID(s) of Target Chain>
2XB7,2XBA,3AOX,5FTO,5FTQ,6E0R,6EBW,6EDL,6MX8

> <UniProt (SwissProt) Recommended Name of Target Chain>
ALK tyrosine kinase receptor

> <UniProt (SwissProt) Entry Name of Target Chain>
ALK_HUMAN

> <UniProt (SwissProt) Primary ID of Target Chain>
Q9UM73

> <UniProt (SwissProt) Secondary ID(s) of Target Chain>
Q4ZFX9,Q53QQ6,Q53RZ4,Q59FI3,Q9Y4K6

> <UniProt (SwissProt) Alternative ID(s) of Target Chain>


> <UniProt (TrEMBL) Submitted Name of Target Chain>


> <UniProt (TrEMBL) Entry Name of Target Chain>


> <UniProt (TrEMBL) Primary ID of Target Chain>


> <UniProt (TrEMBL) Secondary ID(s) of Target Chain>


> <UniProt (TrEMBL) Alternative ID(s) of Target Chain>


$$$$
BindingDB_50185270_mol_1

Vconf v2.0 Academic SN VC001-00000579
 24 26  0  0  0  0  0  0  0  0999 V2000
    7.2044   -7.5835    0.0000 C   0  0  0  0  0  0  0  0  0  0  0
    6.6797   -8.2231    0.0000 C   0  0  0  0  0  0  0  0  0  0  0
    6.9716   -8.9953    0.0000 C   0  0  0  0  0  0  0  0  0  0  0
    8.0166   -7.7147    0.0000 C   0  0  0  0  0  0  0  0  0  0  0
    8.3114   -8.4842    0.0000 C   0  0  0  0  0  0  0  0  0  0  0
    7.7855   -9.1276    0.0000 C   0  0  0  0  0  0  0  0  0  0  0
    8.2349   -9.8266    0.0000 N   0  0  0  0  0  0  0  0  0  0  0
    9.0386   -9.6152    0.0000 C   0  0  0  0  0  0  0  0  0  0  0
    9.0858   -8.7856    0.0000 C   0  0  0  0  0  0  0  0  0  0  0
    9.7797   -8.3395    0.0000 C   0  0  0  0  0  0  0  0  0  0  0
   10.5130   -8.7173    0.0000 C   0  0  0  0  0  0  0  0  0  0  0
    9.7402   -7.5155    0.0000 O   0  0  0  0  0  0  0  0  0  0  0
   10.5525   -9.5413    0.0000 O   0  0  0  0  0  0  0  0  0  0  0
   11.2069   -8.2712    0.0000 N   0  0  0  0  0  0  0  0  0  0  0
   11.9402   -8.6491    0.0000 C   0  0  0  0  0  0  0  0  0  0  0
   12.6341   -8.2029    0.0000 C   0  0  0  0  0  0  0  0  0  0  0
   13.3633   -8.5836    0.0000 N   0  0  0  0  0  0  0  0  0  0  0
   14.0567   -8.1381    0.0000 C   0  0  0  0  0  0  0  0  0  0  0
   14.0176   -7.3133    0.0000 C   0  0  0  0  0  0  0  0  0  0  0
   13.2794   -6.9358    0.0000 C   0  0  0  0  0  0  0  0  0  0  0
   12.5889   -7.3835    0.0000 C   0  0  0  0  0  0  0  0  0  0  0
    6.9127   -6.8074    0.0000 N   0  3  0  0  0  0  0  0  0  0  0
    6.0985   -6.6746    0.0000 O   0  0  0  0  0  0  0  0  0  0  0
    7.4348   -6.1688    0.0000 O   0  5  0  0  0  0  0  0  0  0  0
 10 12  2  0  0  0  0
  2  3  4  0  0  0  0
 11 13  2  0  0  0  0
  3  6  4  0  0  0  0
 11 14  1  0  0  0  0
  1  2  4  0  0  0  0
 14 15  1  0  0  0  0
  5  4  4  0  0  0  0
 15 16  1  0  0  0  0
  6  7  4  0  0  0  0
 16 17  4  0  0  0  0
  7  8  4  0  0  0  0
 17 18  4  0  0  0  0
  8  9  4  0  0  0  0
 18 19  4  0  0  0  0
  9  5  4  0  0  0  0
 19 20  4  0  0  0  0
  4  1  4  0  0  0  0
 20 21  4  0  0  0  0
 21 16  4  0  0  0  0
  9 10  1  0  0  0  0
  5  6  4  0  0  0  0
 10 11  1  0  0  0  0
 22 23  2  0  0  0  0
 22 24  1  0  0  0  0
  1 22  1  0  0  0  0
M  CHG  1  22   1
M  CHG  1  24  -1
M  STY  1   1 DAT
M  SAL   1  1   7
M  SDT   1 MRV_IMPLICIT_H                                        
M  SDD   1     0.0000    0.0000    DR    ALL  0       0  
M  SED   1 IMPL_H1
M  END
> <From>
www.bindingDB.org

> <BindingDB Reactant_set_id>
50506565

> <Ligand InChI>
InChI=1S/C28H36ClN6O2P/c1-37-25-18-21(35-16-12-20(13-17-35)34-14-6-7-15-34)10-11-23(25)32-28-30-19-22(29)27(33-28)31-24-8-4-5-9-26(24)38(2,3)36/h4-5,8-11,18-20H,6-7,12-17H2,1-3H3,(H2,30,31,32,33)

> <Ligand InChI Key>
KJWZHCRQZUOQJR-UHFFFAOYSA-N

> <BindingDB MonomerID>
50185270

> <BindingDB Ligand Name>
CHEMBL3823031

> <Target Name Assigned by Curator or DataSource>
ALK tyrosine kinase receptor

> <Target Source Organism According to Curator or DataSource>
Homo sapiens

> <Ki (nM)>


> <IC50 (nM)>
 0.530000

> <Kd (nM)>


> <EC50 (nM)>


> <kon (M-1-s-1)>


> <koff (s-1)>


> <pH>


> <Temp C>


> <Curation/DataSource>
ChEMBL

> <Article DOI>
10.1021/acs.jmedchem.6b00306

> <PMID>
27144831

> <PubChem AID>


> <Patent Number>


> <Authors>
Huang, WS; Liu, S; Zou, D; Thomas, M; Wang, Y; Zhou, T; Romero, J; Kohlmann, A; Li, F; Qi, J; Cai, L; Dwight, TA; Xu, Y; Xu, R; Dodd, R; Toms, A; Parillon, L; Lu, X; Anjum, R; Zhang, S; Wang, F; Keats, J; Wardwell, SD; Ning, Y; Xu, Q; Moran, LE; Mohemmad, QK; Jang, HG; Clackson, T; Narasimhan, NI; Rivera, VM; Zhu, X; Dalgarno, D; Shakespeare, WC

> <Institution>
ARIAD Pharmaceuticals, Inc.

> <Link to Ligand in BindingDB>
http://www.bindingdb.org/bind/chemsearch/marvin/MolStructure.jsp?monomerid=50185270

> <Link to Ligand-Target Pair in BindingDB>
http://www.bindingdb.org/jsp/dbsearch/PrimarySearch_ki.jsp?energyterm=kJ/mole&tag=pol&polymerid=5809&target=ALK+tyrosine+kinase+receptor&column=ki&startPg=0&Increment=50&submit=Search

> <Link to Ligand-Target Pair in BindingDB>
http://www.bindingdb.org/jsp/dbsearch/PrimarySearch_ki.jsp?energyterm=kJ/mole&tag=r21&monomerid=50185270&enzyme=ALK+tyrosine+kinase+receptor&column=ki&startPg=0&Increment=50&submit=Search

> <Ligand HET ID in PDB>


> <PDB ID(s) for Ligand-Target Complex>


> <PubChem CID>
68165403

> <PubChem SID>
104069490

> <ChEBI ID of Ligand>


> <ChEMBL ID of Ligand>
CHEMBL3823031

> <DrugBank ID of Ligand>


> <IUPHAR_GRAC ID of Ligand>


> <KEGG ID of Ligand>


> <ZINC ID of Ligand>
ZINC13685590

> <Number of Protein Chains in Target (>1 implies a multichain complex)>
1

> <BindingDB Target Chain Sequence>
MGAIGLLWLLPLLLSTAAVGSGMGTGQRAGSPAAGPPLQPREPLSYSRLQRKSLAVDFVVPSLFRVYARDLLLPPSSSELKAGRPEARGSLALDCAPLLRLLGPAPGVSWTAGSPAPAEARTLSRVLKGGSVRKLRRAKQLVLELGEEAILEGCVGPPGEAAVGLLQFNLSELFSWWIRQGEGRLRIRLMPEKKASEVGREGRLSAAIRASQPRLLFQIFGTGHSSLESPTNMPSPSPDYFTWNLTWIMKDSFPFLSHRSRYGLECSFDFPCELEYSPPLHDLRNQSWSWRRIPSEEASQMDLLDGPGAERSKEMPRGSFLLLNTSADSKHTILSPWMRSSSEHCTLAVSVHRHLQPSGRYIAQLLPHNEAAREILLMPTPGKHGWTVLQGRIGRPDNPFRVALEYISSGNRSLSAVDFFALKNCSEGTSPGSKMALQSSFTCWNGTVLQLGQACDFHQDCAQGEDESQMCRKLPVGFYCNFEDGFCGWTQGTLSPHTPQWQVRTLKDARFQDHQDHALLLSTTDVPASESATVTSATFPAPIKSSPCELRMSWLIRGVLRGNVSLVLVENKTGKEQGRMVWHVAAYEGLSLWQWMVLPLLDVSDRFWLQMVAWWGQGSRAIVAFDNISISLDCYLTISGEDKILQNTAPKSRNLFERNPNKELKPGENSPRQTPIFDPTVHWLFTTCGASGPHGPTQAQCNNAYQNSNLSVEVGSEGPLKGIQIWKVPATDTYSISGYGAAGGKGGKNTMMRSHGVSVLGIFNLEKDDMLYILVGQQGEDACPSTNQLIQKVCIGENNVIEEEIRVNRSVHEWAGGGGGGGGATYVFKMKDGVPVPLIIAAGGGGRAYGAKTDTFHPERLENNSSVLGLNGNSGAAGGGGGWNDNTSLLWAGKSLQEGATGGHSCPQAMKKWGWETRGGFGGGGGGCSSGGGGGGYIGGNAASNNDPEMDGEDGVSFISPLGILYTPALKVMEGHGEVNIKHYLNCSHCEVDECHMDPESHKVICFCDHGTVLAEDGVSCIVSPTPEPHLPLSLILSVVTSALVAALVLAFSGIMIVYRRKHQELQAMQMELQSPEYKLSKLRTSTIMTDYNPNYCFAGKTSSISDLKEVPRKNITLIRGLGHGAFGEVYEGQVSGMPNDPSPLQVAVKTLPEVCSEQDELDFLMEALIISKFNHQNIVRCIGVSLQSLPRFILLELMAGGDLKSFLRETRPRPSQPSSLAMLDLLHVARDIACGCQYLEENHFIHRDIAARNCLLTCPGPGRVAKIGDFGMARDIYRASYYRKGGCAMLPVKWMPPEAFMEGIFTSKTDTWSFGVLLWEIFSLGYMPYPSKSNQEVLEFVTSGGRMDPPKNCPGPVYRIMTQCWQHQPEDRPNFAIILERIEYCTQDPDVINTALPIEYGPLVEEEEKVPVRPKDPEGVPPLLVSQQAKREEERSPAAPPPLPTTSSGKAAKKPTAAEISVRVPRGPAVEGGHVNMAFSQSNPPSELHKVHGSRNKPTSLWNPTYGSWFTEKPTKKNNPIAKKEPHDRGNLGLEGSCTVPPNVATGRLPGASLLLEPSSLTANMKEVPLFRLRHFPCGNVNYGYQQQGLPLEAATAPGAGHYEDTILKSKNSMNQPGP

> <PDB ID(s) of Target Chain>
2XB7,2XBA,3AOX,5FTO,5FTQ,6E0R,6EBW,6EDL,6MX8

> <UniProt (SwissProt) Recommended Name of Target Chain>
ALK tyrosine kinase receptor

> <UniProt (SwissProt) Entry Name of Target Chain>
ALK_HUMAN

> <UniProt (SwissProt) Primary ID of Target Chain>
Q9UM73

> <UniProt (SwissProt) Secondary ID(s) of Target Chain>
Q4ZFX9,Q53QQ6,Q53RZ4,Q59FI3,Q9Y4K6

> <UniProt (SwissProt) Alternative ID(s) of Target Chain>


> <UniProt (TrEMBL) Submitted Name of Target Chain>


> <UniProt (TrEMBL) Entry Name of Target Chain>


> <UniProt (TrEMBL) Primary ID of Target Chain>


> <UniProt (TrEMBL) Secondary ID(s) of Target Chain>


> <UniProt (TrEMBL) Alternative ID(s) of Target Chain>


$$$$
BindingDB_50185271_mol_1

Vconf v2.0 Academic SN VC001-00000579
 24 26  0  0  0  0  0  0  0  0999 V2000
    7.6674  -12.1715    0.0000 C   0  0  0  0  0  0  0  0  0  0  0
    7.1427  -12.8112    0.0000 C   0  0  0  0  0  0  0  0  0  0  0
    7.4346  -13.5834    0.0000 C   0  0  0  0  0  0  0  0  0  0  0
    8.4797  -12.3027    0.0000 C   0  0  0  0  0  0  0  0  0  0  0
    8.7745  -13.0723    0.0000 C   0  0  0  0  0  0  0  0  0  0  0
    8.2485  -13.7157    0.0000 C   0  0  0  0  0  0  0  0  0  0  0
    8.6980  -14.4148    0.0000 N   0  0  0  0  0  0  0  0  0  0  0
    9.5017  -14.2034    0.0000 C   0  0  0  0  0  0  0  0  0  0  0
    9.5489  -13.3737    0.0000 C   0  0  0  0  0  0  0  0  0  0  0
   10.2429  -12.9276    0.0000 C   0  0  0  0  0  0  0  0  0  0  0
   10.9762  -13.3054    0.0000 C   0  0  0  0  0  0  0  0  0  0  0
   10.2034  -12.1035    0.0000 O   0  0  0  0  0  0  0  0  0  0  0
   11.0157  -14.1295    0.0000 O   0  0  0  0  0  0  0  0  0  0  0
   11.6702  -12.8593    0.0000 N   0  0  0  0  0  0  0  0  0  0  0
   12.4035  -13.2372    0.0000 C   0  0  0  0  0  0  0  0  0  0  0
   13.0975  -12.7910    0.0000 C   0  0  0  0  0  0  0  0  0  0  0
   13.8267  -13.1717    0.0000 C   0  0  0  0  0  0  0  0  0  0  0
   14.5202  -12.7262    0.0000 N   0  0  0  0  0  0  0  0  0  0  0
   14.4811  -11.9013    0.0000 C   0  0  0  0  0  0  0  0  0  0  0
   13.7428  -11.5238    0.0000 C   0  0  0  0  0  0  0  0  0  0  0
   13.0523  -11.9715    0.0000 C   0  0  0  0  0  0  0  0  0  0  0
    7.3757  -11.3954    0.0000 N   0  3  0  0  0  0  0  0  0  0  0
    6.5614  -11.2626    0.0000 O   0  0  0  0  0  0  0  0  0  0  0
    7.8978  -10.7567    0.0000 O   0  5  0  0  0  0  0  0  0  0  0
 10 12  2  0  0  0  0
  2  3  4  0  0  0  0
 11 13  2  0  0  0  0
  3  6  4  0  0  0  0
 11 14  1  0  0  0  0
  1  2  4  0  0  0  0
 14 15  1  0  0  0  0
  5  4  4  0  0  0  0
 15 16  1  0  0  0  0
  6  7  4  0  0  0  0
 16 17  4  0  0  0  0
  7  8  4  0  0  0  0
 17 18  4  0  0  0  0
  8  9  4  0  0  0  0
 18 19  4  0  0  0  0
  9  5  4  0  0  0  0
 19 20  4  0  0  0  0
  4  1  4  0  0  0  0
 20 21  4  0  0  0  0
 21 16  4  0  0  0  0
  9 10  1  0  0  0  0
  5  6  4  0  0  0  0
 10 11  1  0  0  0  0
 22 23  2  0  0  0  0
 22 24  1  0  0  0  0
  1 22  1  0  0  0  0
M  CHG  1  22   1
M  CHG  1  24  -1
M  STY  1   1 DAT
M  SAL   1  1   7
M  SDT   1 MRV_IMPLICIT_H                                        
M  SDD   1     0.0000    0.0000    DR    ALL  0       0  
M  SED   1 IMPL_H1
M  END
> <From>
www.bindingDB.org

> <BindingDB Reactant_set_id>
50506566

> <Ligand InChI>
InChI=1S/C28H36ClN6O2P/c1-37-25-17-21(35-15-11-20(12-16-35)19-34-13-6-14-34)9-10-23(25)32-28-30-18-22(29)27(33-28)31-24-7-4-5-8-26(24)38(2,3)36/h4-5,7-10,17-18,20H,6,11-16,19H2,1-3H3,(H2,30,31,32,33)

> <Ligand InChI Key>
KYODHQKKLBGUED-UHFFFAOYSA-N

> <BindingDB MonomerID>
50185271

> <BindingDB Ligand Name>
CHEMBL3823218

> <Target Name Assigned by Curator or DataSource>
ALK tyrosine kinase receptor

> <Target Source Organism According to Curator or DataSource>
Homo sapiens

> <Ki (nM)>


> <IC50 (nM)>
 0.880000

> <Kd (nM)>


> <EC50 (nM)>


> <kon (M-1-s-1)>


> <koff (s-1)>


> <pH>


> <Temp C>


> <Curation/DataSource>
ChEMBL

> <Article DOI>
10.1021/acs.jmedchem.6b00306

> <PMID>
27144831

> <PubChem AID>


> <Patent Number>


> <Authors>
Huang, WS; Liu, S; Zou, D; Thomas, M; Wang, Y; Zhou, T; Romero, J; Kohlmann, A; Li, F; Qi, J; Cai, L; Dwight, TA; Xu, Y; Xu, R; Dodd, R; Toms, A; Parillon, L; Lu, X; Anjum, R; Zhang, S; Wang, F; Keats, J; Wardwell, SD; Ning, Y; Xu, Q; Moran, LE; Mohemmad, QK; Jang, HG; Clackson, T; Narasimhan, NI; Rivera, VM; Zhu, X; Dalgarno, D; Shakespeare, WC

> <Institution>
ARIAD Pharmaceuticals, Inc.

> <Link to Ligand in BindingDB>
http://www.bindingdb.org/bind/chemsearch/marvin/MolStructure.jsp?monomerid=50185271

> <Link to Ligand-Target Pair in BindingDB>
http://www.bindingdb.org/jsp/dbsearch/PrimarySearch_ki.jsp?energyterm=kJ/mole&tag=pol&polymerid=5809&target=ALK+tyrosine+kinase+receptor&column=ki&startPg=0&Increment=50&submit=Search

> <Link to Ligand-Target Pair in BindingDB>
http://www.bindingdb.org/jsp/dbsearch/PrimarySearch_ki.jsp?energyterm=kJ/mole&tag=r21&monomerid=50185271&enzyme=ALK+tyrosine+kinase+receptor&column=ki&startPg=0&Increment=50&submit=Search

> <Ligand HET ID in PDB>


> <PDB ID(s) for Ligand-Target Complex>


> <PubChem CID>
68165389

> <PubChem SID>
104069491

> <ChEBI ID of Ligand>


> <ChEMBL ID of Ligand>
CHEMBL3823218

> <DrugBank ID of Ligand>


> <IUPHAR_GRAC ID of Ligand>


> <KEGG ID of Ligand>


> <ZINC ID of Ligand>
ZINC13685592

> <Number of Protein Chains in Target (>1 implies a multichain complex)>
1

> <BindingDB Target Chain Sequence>
MGAIGLLWLLPLLLSTAAVGSGMGTGQRAGSPAAGPPLQPREPLSYSRLQRKSLAVDFVVPSLFRVYARDLLLPPSSSELKAGRPEARGSLALDCAPLLRLLGPAPGVSWTAGSPAPAEARTLSRVLKGGSVRKLRRAKQLVLELGEEAILEGCVGPPGEAAVGLLQFNLSELFSWWIRQGEGRLRIRLMPEKKASEVGREGRLSAAIRASQPRLLFQIFGTGHSSLESPTNMPSPSPDYFTWNLTWIMKDSFPFLSHRSRYGLECSFDFPCELEYSPPLHDLRNQSWSWRRIPSEEASQMDLLDGPGAERSKEMPRGSFLLLNTSADSKHTILSPWMRSSSEHCTLAVSVHRHLQPSGRYIAQLLPHNEAAREILLMPTPGKHGWTVLQGRIGRPDNPFRVALEYISSGNRSLSAVDFFALKNCSEGTSPGSKMALQSSFTCWNGTVLQLGQACDFHQDCAQGEDESQMCRKLPVGFYCNFEDGFCGWTQGTLSPHTPQWQVRTLKDARFQDHQDHALLLSTTDVPASESATVTSATFPAPIKSSPCELRMSWLIRGVLRGNVSLVLVENKTGKEQGRMVWHVAAYEGLSLWQWMVLPLLDVSDRFWLQMVAWWGQGSRAIVAFDNISISLDCYLTISGEDKILQNTAPKSRNLFERNPNKELKPGENSPRQTPIFDPTVHWLFTTCGASGPHGPTQAQCNNAYQNSNLSVEVGSEGPLKGIQIWKVPATDTYSISGYGAAGGKGGKNTMMRSHGVSVLGIFNLEKDDMLYILVGQQGEDACPSTNQLIQKVCIGENNVIEEEIRVNRSVHEWAGGGGGGGGATYVFKMKDGVPVPLIIAAGGGGRAYGAKTDTFHPERLENNSSVLGLNGNSGAAGGGGGWNDNTSLLWAGKSLQEGATGGHSCPQAMKKWGWETRGGFGGGGGGCSSGGGGGGYIGGNAASNNDPEMDGEDGVSFISPLGILYTPALKVMEGHGEVNIKHYLNCSHCEVDECHMDPESHKVICFCDHGTVLAEDGVSCIVSPTPEPHLPLSLILSVVTSALVAALVLAFSGIMIVYRRKHQELQAMQMELQSPEYKLSKLRTSTIMTDYNPNYCFAGKTSSISDLKEVPRKNITLIRGLGHGAFGEVYEGQVSGMPNDPSPLQVAVKTLPEVCSEQDELDFLMEALIISKFNHQNIVRCIGVSLQSLPRFILLELMAGGDLKSFLRETRPRPSQPSSLAMLDLLHVARDIACGCQYLEENHFIHRDIAARNCLLTCPGPGRVAKIGDFGMARDIYRASYYRKGGCAMLPVKWMPPEAFMEGIFTSKTDTWSFGVLLWEIFSLGYMPYPSKSNQEVLEFVTSGGRMDPPKNCPGPVYRIMTQCWQHQPEDRPNFAIILERIEYCTQDPDVINTALPIEYGPLVEEEEKVPVRPKDPEGVPPLLVSQQAKREEERSPAAPPPLPTTSSGKAAKKPTAAEISVRVPRGPAVEGGHVNMAFSQSNPPSELHKVHGSRNKPTSLWNPTYGSWFTEKPTKKNNPIAKKEPHDRGNLGLEGSCTVPPNVATGRLPGASLLLEPSSLTANMKEVPLFRLRHFPCGNVNYGYQQQGLPLEAATAPGAGHYEDTILKSKNSMNQPGP

> <PDB ID(s) of Target Chain>
2XB7,2XBA,3AOX,5FTO,5FTQ,6E0R,6EBW,6EDL,6MX8

> <UniProt (SwissProt) Recommended Name of Target Chain>
ALK tyrosine kinase receptor

> <UniProt (SwissProt) Entry Name of Target Chain>
ALK_HUMAN

> <UniProt (SwissProt) Primary ID of Target Chain>
Q9UM73

> <UniProt (SwissProt) Secondary ID(s) of Target Chain>
Q4ZFX9,Q53QQ6,Q53RZ4,Q59FI3,Q9Y4K6

> <UniProt (SwissProt) Alternative ID(s) of Target Chain>


> <UniProt (TrEMBL) Submitted Name of Target Chain>


> <UniProt (TrEMBL) Entry Name of Target Chain>


> <UniProt (TrEMBL) Primary ID of Target Chain>


> <UniProt (TrEMBL) Secondary ID(s) of Target Chain>


> <UniProt (TrEMBL) Alternative ID(s) of Target Chain>


$$$$
BindingDB_50185272_mol_1

Vconf v2.0 Academic SN VC001-00000579
 27 30  0  0  0  0  0  0  0  0999 V2000
    7.4424  -18.6465    0.0000 C   0  0  0  0  0  0  0  0  0  0  0
    6.9177  -19.2862    0.0000 C   0  0  0  0  0  0  0  0  0  0  0
    7.2096  -20.0584    0.0000 C   0  0  0  0  0  0  0  0  0  0  0
    8.2547  -18.7777    0.0000 C   0  0  0  0  0  0  0  0  0  0  0
    8.5495  -19.5473    0.0000 C   0  0  0  0  0  0  0  0  0  0  0
    8.0235  -20.1907    0.0000 C   0  0  0  0  0  0  0  0  0  0  0
    8.4730  -20.8898    0.0000 N   0  0  0  0  0  0  0  0  0  0  0
    9.2767  -20.6784    0.0000 C   0  0  0  0  0  0  0  0  0  0  0
    9.3239  -19.8487    0.0000 C   0  0  0  0  0  0  0  0  0  0  0
   10.0179  -19.4026    0.0000 C   0  0  0  0  0  0  0  0  0  0  0
   10.7512  -19.7804    0.0000 C   0  0  0  0  0  0  0  0  0  0  0
    9.9784  -18.5785    0.0000 O   0  0  0  0  0  0  0  0  0  0  0
   10.7907  -20.6045    0.0000 O   0  0  0  0  0  0  0  0  0  0  0
   11.4452  -19.3343    0.0000 N   0  0  0  0  0  0  0  0  0  0  0
   12.1785  -19.7122    0.0000 C   0  0  0  0  0  0  0  0  0  0  0
   12.8725  -19.2660    0.0000 C   0  0  0  0  0  0  0  0  0  0  0
   13.6410  -19.5609    0.0000 N   0  0  0  0  0  0  0  0  0  0  0
   12.9191  -18.4381    0.0000 C   0  0  0  0  0  0  0  0  0  0  0
   13.7169  -18.2281    0.0000 C   0  0  0  0  0  0  0  0  0  0  0
   14.1588  -18.9212    0.0000 C   0  0  0  0  0  0  0  0  0  0  0
   14.9780  -18.8842    0.0000 C   0  0  0  0  0  0  0  0  0  0  0
   15.3564  -18.1548    0.0000 C   0  0  0  0  0  0  0  0  0  0  0
   14.9095  -17.4612    0.0000 C   0  0  0  0  0  0  0  0  0  0  0
   14.0917  -17.5017    0.0000 C   0  0  0  0  0  0  0  0  0  0  0
    7.1507  -17.8704    0.0000 N   0  3  0  0  0  0  0  0  0  0  0
    6.3364  -17.7376    0.0000 O   0  0  0  0  0  0  0  0  0  0  0
    7.6728  -17.2317    0.0000 O   0  5  0  0  0  0  0  0  0  0  0
 11 13  2  0  0  0  0
  3  6  4  0  0  0  0
 11 14  1  0  0  0  0
  1  2  4  0  0  0  0
 14 15  1  0  0  0  0
  5  4  4  0  0  0  0
 15 16  1  0  0  0  0
 16 17  4  0  0  0  0
  6  7  4  0  0  0  0
  7  8  4  0  0  0  0
 17 20  4  0  0  0  0
 19 18  4  0  0  0  0
 18 16  4  0  0  0  0
  8  9  4  0  0  0  0
  9  5  4  0  0  0  0
 19 20  4  0  0  0  0
  4  1  4  0  0  0  0
 20 21  4  0  0  0  0
  9 10  1  0  0  0  0
 21 22  4  0  0  0  0
  5  6  4  0  0  0  0
 22 23  4  0  0  0  0
 10 11  1  0  0  0  0
 23 24  4  0  0  0  0
 24 19  4  0  0  0  0
 10 12  2  0  0  0  0
  2  3  4  0  0  0  0
 25 26  2  0  0  0  0
 25 27  1  0  0  0  0
  1 25  1  0  0  0  0
M  CHG  1  25   1
M  CHG  1  27  -1
M  STY  2   1 DAT   2 DAT
M  SAL   1  1   7
M  SDT   1 MRV_IMPLICIT_H                                        
M  SDD   1     0.0000    0.0000    DR    ALL  0       0  
M  SED   1 IMPL_H1
M  SAL   2  1  17
M  SDT   2 MRV_IMPLICIT_H                                        
M  SDD   2     0.0000    0.0000    DR    ALL  0       0  
M  SED   2 IMPL_H1
M  END
> <From>
www.bindingDB.org

> <BindingDB Reactant_set_id>
50506568

> <Ligand InChI>
InChI=1S/C25H32ClN6O2P/c1-31(2)18-12-13-32(16-18)17-10-11-20(22(14-17)34-3)29-25-27-15-19(26)24(30-25)28-21-8-6-7-9-23(21)35(4,5)33/h6-11,14-15,18H,12-13,16H2,1-5H3,(H2,27,28,29,30)/t18-/m1/s1

> <Ligand InChI Key>
ZKSMNJVVPOADIE-GOSISDBHSA-N

> <BindingDB MonomerID>
50185272

> <BindingDB Ligand Name>
CHEMBL3823107

> <Target Name Assigned by Curator or DataSource>
ALK tyrosine kinase receptor

> <Target Source Organism According to Curator or DataSource>
Homo sapiens

> <Ki (nM)>


> <IC50 (nM)>
 0.330000

> <Kd (nM)>


> <EC50 (nM)>


> <kon (M-1-s-1)>


> <koff (s-1)>


> <pH>


> <Temp C>


> <Curation/DataSource>
ChEMBL

> <Article DOI>
10.1021/acs.jmedchem.6b00306

> <PMID>
27144831

> <PubChem AID>


> <Patent Number>


> <Authors>
Huang, WS; Liu, S; Zou, D; Thomas, M; Wang, Y; Zhou, T; Romero, J; Kohlmann, A; Li, F; Qi, J; Cai, L; Dwight, TA; Xu, Y; Xu, R; Dodd, R; Toms, A; Parillon, L; Lu, X; Anjum, R; Zhang, S; Wang, F; Keats, J; Wardwell, SD; Ning, Y; Xu, Q; Moran, LE; Mohemmad, QK; Jang, HG; Clackson, T; Narasimhan, NI; Rivera, VM; Zhu, X; Dalgarno, D; Shakespeare, WC

> <Institution>
ARIAD Pharmaceuticals, Inc.

> <Link to Ligand in BindingDB>
http://www.bindingdb.org/bind/chemsearch/marvin/MolStructure.jsp?monomerid=50185272

> <Link to Ligand-Target Pair in BindingDB>
http://www.bindingdb.org/jsp/dbsearch/PrimarySearch_ki.jsp?energyterm=kJ/mole&tag=pol&polymerid=5809&target=ALK+tyrosine+kinase+receptor&column=ki&startPg=0&Increment=50&submit=Search

> <Link to Ligand-Target Pair in BindingDB>
http://www.bindingdb.org/jsp/dbsearch/PrimarySearch_ki.jsp?energyterm=kJ/mole&tag=r21&monomerid=50185272&enzyme=ALK+tyrosine+kinase+receptor&column=ki&startPg=0&Increment=50&submit=Search

> <Ligand HET ID in PDB>


> <PDB ID(s) for Ligand-Target Complex>


> <PubChem CID>
68165327

> <PubChem SID>
104069492

> <ChEBI ID of Ligand>


> <ChEMBL ID of Ligand>
CHEMBL3823107

> <DrugBank ID of Ligand>


> <IUPHAR_GRAC ID of Ligand>


> <KEGG ID of Ligand>


> <ZINC ID of Ligand>
ZINC13685569

> <Number of Protein Chains in Target (>1 implies a multichain complex)>
1

> <BindingDB Target Chain Sequence>
MGAIGLLWLLPLLLSTAAVGSGMGTGQRAGSPAAGPPLQPREPLSYSRLQRKSLAVDFVVPSLFRVYARDLLLPPSSSELKAGRPEARGSLALDCAPLLRLLGPAPGVSWTAGSPAPAEARTLSRVLKGGSVRKLRRAKQLVLELGEEAILEGCVGPPGEAAVGLLQFNLSELFSWWIRQGEGRLRIRLMPEKKASEVGREGRLSAAIRASQPRLLFQIFGTGHSSLESPTNMPSPSPDYFTWNLTWIMKDSFPFLSHRSRYGLECSFDFPCELEYSPPLHDLRNQSWSWRRIPSEEASQMDLLDGPGAERSKEMPRGSFLLLNTSADSKHTILSPWMRSSSEHCTLAVSVHRHLQPSGRYIAQLLPHNEAAREILLMPTPGKHGWTVLQGRIGRPDNPFRVALEYISSGNRSLSAVDFFALKNCSEGTSPGSKMALQSSFTCWNGTVLQLGQACDFHQDCAQGEDESQMCRKLPVGFYCNFEDGFCGWTQGTLSPHTPQWQVRTLKDARFQDHQDHALLLSTTDVPASESATVTSATFPAPIKSSPCELRMSWLIRGVLRGNVSLVLVENKTGKEQGRMVWHVAAYEGLSLWQWMVLPLLDVSDRFWLQMVAWWGQGSRAIVAFDNISISLDCYLTISGEDKILQNTAPKSRNLFERNPNKELKPGENSPRQTPIFDPTVHWLFTTCGASGPHGPTQAQCNNAYQNSNLSVEVGSEGPLKGIQIWKVPATDTYSISGYGAAGGKGGKNTMMRSHGVSVLGIFNLEKDDMLYILVGQQGEDACPSTNQLIQKVCIGENNVIEEEIRVNRSVHEWAGGGGGGGGATYVFKMKDGVPVPLIIAAGGGGRAYGAKTDTFHPERLENNSSVLGLNGNSGAAGGGGGWNDNTSLLWAGKSLQEGATGGHSCPQAMKKWGWETRGGFGGGGGGCSSGGGGGGYIGGNAASNNDPEMDGEDGVSFISPLGILYTPALKVMEGHGEVNIKHYLNCSHCEVDECHMDPESHKVICFCDHGTVLAEDGVSCIVSPTPEPHLPLSLILSVVTSALVAALVLAFSGIMIVYRRKHQELQAMQMELQSPEYKLSKLRTSTIMTDYNPNYCFAGKTSSISDLKEVPRKNITLIRGLGHGAFGEVYEGQVSGMPNDPSPLQVAVKTLPEVCSEQDELDFLMEALIISKFNHQNIVRCIGVSLQSLPRFILLELMAGGDLKSFLRETRPRPSQPSSLAMLDLLHVARDIACGCQYLEENHFIHRDIAARNCLLTCPGPGRVAKIGDFGMARDIYRASYYRKGGCAMLPVKWMPPEAFMEGIFTSKTDTWSFGVLLWEIFSLGYMPYPSKSNQEVLEFVTSGGRMDPPKNCPGPVYRIMTQCWQHQPEDRPNFAIILERIEYCTQDPDVINTALPIEYGPLVEEEEKVPVRPKDPEGVPPLLVSQQAKREEERSPAAPPPLPTTSSGKAAKKPTAAEISVRVPRGPAVEGGHVNMAFSQSNPPSELHKVHGSRNKPTSLWNPTYGSWFTEKPTKKNNPIAKKEPHDRGNLGLEGSCTVPPNVATGRLPGASLLLEPSSLTANMKEVPLFRLRHFPCGNVNYGYQQQGLPLEAATAPGAGHYEDTILKSKNSMNQPGP

> <PDB ID(s) of Target Chain>
2XB7,2XBA,3AOX,5FTO,5FTQ,6E0R,6EBW,6EDL,6MX8

> <UniProt (SwissProt) Recommended Name of Target Chain>
ALK tyrosine kinase receptor

> <UniProt (SwissProt) Entry Name of Target Chain>
ALK_HUMAN

> <UniProt (SwissProt) Primary ID of Target Chain>
Q9UM73

> <UniProt (SwissProt) Secondary ID(s) of Target Chain>
Q4ZFX9,Q53QQ6,Q53RZ4,Q59FI3,Q9Y4K6

> <UniProt (SwissProt) Alternative ID(s) of Target Chain>


> <UniProt (TrEMBL) Submitted Name of Target Chain>


> <UniProt (TrEMBL) Entry Name of Target Chain>


> <UniProt (TrEMBL) Primary ID of Target Chain>


> <UniProt (TrEMBL) Secondary ID(s) of Target Chain>


> <UniProt (TrEMBL) Alternative ID(s) of Target Chain>


$$$$
BindingDB_50185274_mol_1

Vconf v2.0 Academic SN VC001-00000579
 24 26  0  0  0  0  0  0  0  0999 V2000
    8.2049    1.5993    0.0000 C   0  0  0  0  0  0  0  0  0  0  0
    7.6802    0.9596    0.0000 C   0  0  0  0  0  0  0  0  0  0  0
    7.9721    0.1875    0.0000 C   0  0  0  0  0  0  0  0  0  0  0
    9.0172    1.4681    0.0000 C   0  0  0  0  0  0  0  0  0  0  0
    9.3120    0.6985    0.0000 C   0  0  0  0  0  0  0  0  0  0  0
    8.7860    0.0551    0.0000 C   0  0  0  0  0  0  0  0  0  0  0
    9.2355   -0.6440    0.0000 N   0  0  0  0  0  0  0  0  0  0  0
   10.0392   -0.4326    0.0000 C   0  0  0  0  0  0  0  0  0  0  0
   10.0864    0.3971    0.0000 C   0  0  0  0  0  0  0  0  0  0  0
   10.7804    0.8433    0.0000 C   0  0  0  0  0  0  0  0  0  0  0
   11.5137    0.4654    0.0000 C   0  0  0  0  0  0  0  0  0  0  0
   10.7409    1.6673    0.0000 O   0  0  0  0  0  0  0  0  0  0  0
   11.5532   -0.3587    0.0000 O   0  0  0  0  0  0  0  0  0  0  0
   12.2077    0.9116    0.0000 N   0  0  0  0  0  0  0  0  0  0  0
   12.9410    0.5337    0.0000 C   0  0  0  0  0  0  0  0  0  0  0
   13.6350    0.9798    0.0000 C   0  0  0  0  0  0  0  0  0  0  0
   14.4035    0.6849    0.0000 O   0  0  0  0  0  0  0  0  0  0  0
   13.6816    1.8077    0.0000 C   0  0  0  0  0  0  0  0  0  0  0
   14.4794    2.0177    0.0000 C   0  0  0  0  0  0  0  0  0  0  0
   14.9213    1.3246    0.0000 C   0  0  0  0  0  0  0  0  0  0  0
   15.7449    1.2781    0.0000 C   0  0  0  0  0  0  0  0  0  0  0
    7.9125    2.3709    0.0000 N   0  3  0  0  0  0  0  0  0  0  0
    7.0982    2.5037    0.0000 O   0  0  0  0  0  0  0  0  0  0  0
    8.4346    3.0096    0.0000 O   0  5  0  0  0  0  0  0  0  0  0
 10 12  2  0  0  0  0
  2  3  4  0  0  0  0
 11 13  2  0  0  0  0
  3  6  4  0  0  0  0
 11 14  1  0  0  0  0
  1  2  4  0  0  0  0
 14 15  1  0  0  0  0
  5  4  4  0  0  0  0
 15 16  1  0  0  0  0
 16 17  4  0  0  0  0
  6  7  4  0  0  0  0
  7  8  4  0  0  0  0
 17 20  4  0  0  0  0
 19 18  4  0  0  0  0
 18 16  4  0  0  0  0
  8  9  4  0  0  0  0
  9  5  4  0  0  0  0
 19 20  4  0  0  0  0
  4  1  4  0  0  0  0
 20 21  1  0  0  0  0
  9 10  1  0  0  0  0
  5  6  4  0  0  0  0
 10 11  1  0  0  0  0
 22 23  2  0  0  0  0
 22 24  1  0  0  0  0
  1 22  1  0  0  0  0
M  CHG  1  22   1
M  CHG  1  24  -1
M  STY  1   1 DAT
M  SAL   1  1   7
M  SDT   1 MRV_IMPLICIT_H                                        
M  SDD   1     0.0000    0.0000    DR    ALL  0       0  
M  SED   1 IMPL_H1
M  END
> <From>
www.bindingDB.org

> <BindingDB Reactant_set_id>
50506569

> <Ligand InChI>
InChI=1S/C25H32ClN6O2P/c1-31-12-7-13-32(15-14-31)18-10-11-20(22(16-18)34-2)29-25-27-17-19(26)24(30-25)28-21-8-5-6-9-23(21)35(3,4)33/h5-6,8-11,16-17H,7,12-15H2,1-4H3,(H2,27,28,29,30)

> <Ligand InChI Key>
MQCNUAFNUAISQK-UHFFFAOYSA-N

> <BindingDB MonomerID>
50185274

> <BindingDB Ligand Name>
CHEMBL3824130

> <Target Name Assigned by Curator or DataSource>
ALK tyrosine kinase receptor

> <Target Source Organism According to Curator or DataSource>
Homo sapiens

> <Ki (nM)>


> <IC50 (nM)>
 0.720000

> <Kd (nM)>


> <EC50 (nM)>


> <kon (M-1-s-1)>


> <koff (s-1)>


> <pH>


> <Temp C>


> <Curation/DataSource>
ChEMBL

> <Article DOI>
10.1021/acs.jmedchem.6b00306

> <PMID>
27144831

> <PubChem AID>


> <Patent Number>


> <Authors>
Huang, WS; Liu, S; Zou, D; Thomas, M; Wang, Y; Zhou, T; Romero, J; Kohlmann, A; Li, F; Qi, J; Cai, L; Dwight, TA; Xu, Y; Xu, R; Dodd, R; Toms, A; Parillon, L; Lu, X; Anjum, R; Zhang, S; Wang, F; Keats, J; Wardwell, SD; Ning, Y; Xu, Q; Moran, LE; Mohemmad, QK; Jang, HG; Clackson, T; Narasimhan, NI; Rivera, VM; Zhu, X; Dalgarno, D; Shakespeare, WC

> <Institution>
ARIAD Pharmaceuticals, Inc.

> <Link to Ligand in BindingDB>
http://www.bindingdb.org/bind/chemsearch/marvin/MolStructure.jsp?monomerid=50185274

> <Link to Ligand-Target Pair in BindingDB>
http://www.bindingdb.org/jsp/dbsearch/PrimarySearch_ki.jsp?energyterm=kJ/mole&tag=pol&polymerid=5809&target=ALK+tyrosine+kinase+receptor&column=ki&startPg=0&Increment=50&submit=Search

> <Link to Ligand-Target Pair in BindingDB>
http://www.bindingdb.org/jsp/dbsearch/PrimarySearch_ki.jsp?energyterm=kJ/mole&tag=r21&monomerid=50185274&enzyme=ALK+tyrosine+kinase+receptor&column=ki&startPg=0&Increment=50&submit=Search

> <Ligand HET ID in PDB>


> <PDB ID(s) for Ligand-Target Complex>


> <PubChem CID>
68165382

> <PubChem SID>
104069494

> <ChEBI ID of Ligand>


> <ChEMBL ID of Ligand>
CHEMBL3824130

> <DrugBank ID of Ligand>


> <IUPHAR_GRAC ID of Ligand>


> <KEGG ID of Ligand>


> <ZINC ID of Ligand>
ZINC13685581

> <Number of Protein Chains in Target (>1 implies a multichain complex)>
1

> <BindingDB Target Chain Sequence>
MGAIGLLWLLPLLLSTAAVGSGMGTGQRAGSPAAGPPLQPREPLSYSRLQRKSLAVDFVVPSLFRVYARDLLLPPSSSELKAGRPEARGSLALDCAPLLRLLGPAPGVSWTAGSPAPAEARTLSRVLKGGSVRKLRRAKQLVLELGEEAILEGCVGPPGEAAVGLLQFNLSELFSWWIRQGEGRLRIRLMPEKKASEVGREGRLSAAIRASQPRLLFQIFGTGHSSLESPTNMPSPSPDYFTWNLTWIMKDSFPFLSHRSRYGLECSFDFPCELEYSPPLHDLRNQSWSWRRIPSEEASQMDLLDGPGAERSKEMPRGSFLLLNTSADSKHTILSPWMRSSSEHCTLAVSVHRHLQPSGRYIAQLLPHNEAAREILLMPTPGKHGWTVLQGRIGRPDNPFRVALEYISSGNRSLSAVDFFALKNCSEGTSPGSKMALQSSFTCWNGTVLQLGQACDFHQDCAQGEDESQMCRKLPVGFYCNFEDGFCGWTQGTLSPHTPQWQVRTLKDARFQDHQDHALLLSTTDVPASESATVTSATFPAPIKSSPCELRMSWLIRGVLRGNVSLVLVENKTGKEQGRMVWHVAAYEGLSLWQWMVLPLLDVSDRFWLQMVAWWGQGSRAIVAFDNISISLDCYLTISGEDKILQNTAPKSRNLFERNPNKELKPGENSPRQTPIFDPTVHWLFTTCGASGPHGPTQAQCNNAYQNSNLSVEVGSEGPLKGIQIWKVPATDTYSISGYGAAGGKGGKNTMMRSHGVSVLGIFNLEKDDMLYILVGQQGEDACPSTNQLIQKVCIGENNVIEEEIRVNRSVHEWAGGGGGGGGATYVFKMKDGVPVPLIIAAGGGGRAYGAKTDTFHPERLENNSSVLGLNGNSGAAGGGGGWNDNTSLLWAGKSLQEGATGGHSCPQAMKKWGWETRGGFGGGGGGCSSGGGGGGYIGGNAASNNDPEMDGEDGVSFISPLGILYTPALKVMEGHGEVNIKHYLNCSHCEVDECHMDPESHKVICFCDHGTVLAEDGVSCIVSPTPEPHLPLSLILSVVTSALVAALVLAFSGIMIVYRRKHQELQAMQMELQSPEYKLSKLRTSTIMTDYNPNYCFAGKTSSISDLKEVPRKNITLIRGLGHGAFGEVYEGQVSGMPNDPSPLQVAVKTLPEVCSEQDELDFLMEALIISKFNHQNIVRCIGVSLQSLPRFILLELMAGGDLKSFLRETRPRPSQPSSLAMLDLLHVARDIACGCQYLEENHFIHRDIAARNCLLTCPGPGRVAKIGDFGMARDIYRASYYRKGGCAMLPVKWMPPEAFMEGIFTSKTDTWSFGVLLWEIFSLGYMPYPSKSNQEVLEFVTSGGRMDPPKNCPGPVYRIMTQCWQHQPEDRPNFAIILERIEYCTQDPDVINTALPIEYGPLVEEEEKVPVRPKDPEGVPPLLVSQQAKREEERSPAAPPPLPTTSSGKAAKKPTAAEISVRVPRGPAVEGGHVNMAFSQSNPPSELHKVHGSRNKPTSLWNPTYGSWFTEKPTKKNNPIAKKEPHDRGNLGLEGSCTVPPNVATGRLPGASLLLEPSSLTANMKEVPLFRLRHFPCGNVNYGYQQQGLPLEAATAPGAGHYEDTILKSKNSMNQPGP

> <PDB ID(s) of Target Chain>
2XB7,2XBA,3AOX,5FTO,5FTQ,6E0R,6EBW,6EDL,6MX8

> <UniProt (SwissProt) Recommended Name of Target Chain>
ALK tyrosine kinase receptor

> <UniProt (SwissProt) Entry Name of Target Chain>
ALK_HUMAN

> <UniProt (SwissProt) Primary ID of Target Chain>
Q9UM73

> <UniProt (SwissProt) Secondary ID(s) of Target Chain>
Q4ZFX9,Q53QQ6,Q53RZ4,Q59FI3,Q9Y4K6

> <UniProt (SwissProt) Alternative ID(s) of Target Chain>


> <UniProt (TrEMBL) Submitted Name of Target Chain>


> <UniProt (TrEMBL) Entry Name of Target Chain>


> <UniProt (TrEMBL) Primary ID of Target Chain>


> <UniProt (TrEMBL) Secondary ID(s) of Target Chain>


> <UniProt (TrEMBL) Alternative ID(s) of Target Chain>


$$$$
BindingDB_50185275_mol_1

Vconf v2.0 Academic SN VC001-00000579
 20 22  0  0  0  0  0  0  0  0999 V2000
   -3.8070  -23.5763    0.0000 C   0  0  0  0  0  0  0  0  0  0  0
   -4.3317  -24.2158    0.0000 C   0  0  0  0  0  0  0  0  0  0  0
   -4.0398  -24.9879    0.0000 C   0  0  0  0  0  0  0  0  0  0  0
   -2.9949  -23.7074    0.0000 C   0  0  0  0  0  0  0  0  0  0  0
   -2.7001  -24.4768    0.0000 C   0  0  0  0  0  0  0  0  0  0  0
   -3.2261  -25.1203    0.0000 C   0  0  0  0  0  0  0  0  0  0  0
   -2.7766  -25.8192    0.0000 N   0  0  0  0  0  0  0  0  0  0  0
   -1.9729  -25.6077    0.0000 C   0  0  0  0  0  0  0  0  0  0  0
   -1.9259  -24.7783    0.0000 C   0  0  0  0  0  0  0  0  0  0  0
   -1.2319  -24.3321    0.0000 C   0  0  0  0  0  0  0  0  0  0  0
   -0.4988  -24.7100    0.0000 C   0  0  0  0  0  0  0  0  0  0  0
   -1.2714  -23.5082    0.0000 O   0  0  0  0  0  0  0  0  0  0  0
   -0.4593  -25.5338    0.0000 O   0  0  0  0  0  0  0  0  0  0  0
    0.1952  -24.2638    0.0000 N   0  0  0  0  0  0  0  0  0  0  0
    0.9283  -24.6417    0.0000 C   0  0  0  0  0  0  0  0  0  0  0
    1.6223  -24.1955    0.0000 C   0  0  0  0  0  0  0  0  0  0  0
    2.3906  -24.4904    0.0000 O   0  0  0  0  0  0  0  0  0  0  0
    1.6689  -23.3679    0.0000 C   0  0  0  0  0  0  0  0  0  0  0
    2.4665  -23.1579    0.0000 C   0  0  0  0  0  0  0  0  0  0  0
    2.9084  -23.8509    0.0000 C   0  0  0  0  0  0  0  0  0  0  0
  4  1  4  0  0  0  0
  9 10  1  0  0  0  0
  5  6  4  0  0  0  0
 10 11  1  0  0  0  0
 10 12  2  0  0  0  0
  2  3  4  0  0  0  0
 11 13  2  0  0  0  0
  3  6  4  0  0  0  0
 11 14  1  0  0  0  0
  1  2  4  0  0  0  0
 14 15  1  0  0  0  0
  5  4  4  0  0  0  0
 15 16  1  0  0  0  0
 16 17  4  0  0  0  0
  6  7  4  0  0  0  0
  7  8  4  0  0  0  0
 17 20  4  0  0  0  0
 19 18  4  0  0  0  0
 18 16  4  0  0  0  0
  8  9  4  0  0  0  0
  9  5  4  0  0  0  0
 19 20  4  0  0  0  0
M  STY  1   1 DAT
M  SAL   1  1   7
M  SDT   1 MRV_IMPLICIT_H                                        
M  SDD   1     0.0000    0.0000    DR    ALL  0       0  
M  SED   1 IMPL_H1
M  END
> <From>
www.bindingDB.org

> <BindingDB Reactant_set_id>
50506570

> <Ligand InChI>
InChI=1S/C25H32ClN6O3P/c1-35-22-16-18(32-12-10-31(11-13-32)14-15-33)8-9-20(22)29-25-27-17-19(26)24(30-25)28-21-6-4-5-7-23(21)36(2,3)34/h4-9,16-17,33H,10-15H2,1-3H3,(H2,27,28,29,30)

> <Ligand InChI Key>
CBCRRZVVZMJUTF-UHFFFAOYSA-N

> <BindingDB MonomerID>
50185275

> <BindingDB Ligand Name>
CHEMBL3823235

> <Target Name Assigned by Curator or DataSource>
ALK tyrosine kinase receptor

> <Target Source Organism According to Curator or DataSource>
Homo sapiens

> <Ki (nM)>


> <IC50 (nM)>
 0.180000

> <Kd (nM)>


> <EC50 (nM)>


> <kon (M-1-s-1)>


> <koff (s-1)>


> <pH>


> <Temp C>


> <Curation/DataSource>
ChEMBL

> <Article DOI>
10.1021/acs.jmedchem.6b00306

> <PMID>
27144831

> <PubChem AID>


> <Patent Number>


> <Authors>
Huang, WS; Liu, S; Zou, D; Thomas, M; Wang, Y; Zhou, T; Romero, J; Kohlmann, A; Li, F; Qi, J; Cai, L; Dwight, TA; Xu, Y; Xu, R; Dodd, R; Toms, A; Parillon, L; Lu, X; Anjum, R; Zhang, S; Wang, F; Keats, J; Wardwell, SD; Ning, Y; Xu, Q; Moran, LE; Mohemmad, QK; Jang, HG; Clackson, T; Narasimhan, NI; Rivera, VM; Zhu, X; Dalgarno, D; Shakespeare, WC

> <Institution>
ARIAD Pharmaceuticals, Inc.

> <Link to Ligand in BindingDB>
http://www.bindingdb.org/bind/chemsearch/marvin/MolStructure.jsp?monomerid=50185275

> <Link to Ligand-Target Pair in BindingDB>
http://www.bindingdb.org/jsp/dbsearch/PrimarySearch_ki.jsp?energyterm=kJ/mole&tag=pol&polymerid=5809&target=ALK+tyrosine+kinase+receptor&column=ki&startPg=0&Increment=50&submit=Search

> <Link to Ligand-Target Pair in BindingDB>
http://www.bindingdb.org/jsp/dbsearch/PrimarySearch_ki.jsp?energyterm=kJ/mole&tag=r21&monomerid=50185275&enzyme=ALK+tyrosine+kinase+receptor&column=ki&startPg=0&Increment=50&submit=Search

> <Ligand HET ID in PDB>


> <PDB ID(s) for Ligand-Target Complex>


> <PubChem CID>
44515722

> <PubChem SID>
104069495

> <ChEBI ID of Ligand>


> <ChEMBL ID of Ligand>
CHEMBL3823235

> <DrugBank ID of Ligand>


> <IUPHAR_GRAC ID of Ligand>


> <KEGG ID of Ligand>


> <ZINC ID of Ligand>
ZINC04163167

> <Number of Protein Chains in Target (>1 implies a multichain complex)>
1

> <BindingDB Target Chain Sequence>
MGAIGLLWLLPLLLSTAAVGSGMGTGQRAGSPAAGPPLQPREPLSYSRLQRKSLAVDFVVPSLFRVYARDLLLPPSSSELKAGRPEARGSLALDCAPLLRLLGPAPGVSWTAGSPAPAEARTLSRVLKGGSVRKLRRAKQLVLELGEEAILEGCVGPPGEAAVGLLQFNLSELFSWWIRQGEGRLRIRLMPEKKASEVGREGRLSAAIRASQPRLLFQIFGTGHSSLESPTNMPSPSPDYFTWNLTWIMKDSFPFLSHRSRYGLECSFDFPCELEYSPPLHDLRNQSWSWRRIPSEEASQMDLLDGPGAERSKEMPRGSFLLLNTSADSKHTILSPWMRSSSEHCTLAVSVHRHLQPSGRYIAQLLPHNEAAREILLMPTPGKHGWTVLQGRIGRPDNPFRVALEYISSGNRSLSAVDFFALKNCSEGTSPGSKMALQSSFTCWNGTVLQLGQACDFHQDCAQGEDESQMCRKLPVGFYCNFEDGFCGWTQGTLSPHTPQWQVRTLKDARFQDHQDHALLLSTTDVPASESATVTSATFPAPIKSSPCELRMSWLIRGVLRGNVSLVLVENKTGKEQGRMVWHVAAYEGLSLWQWMVLPLLDVSDRFWLQMVAWWGQGSRAIVAFDNISISLDCYLTISGEDKILQNTAPKSRNLFERNPNKELKPGENSPRQTPIFDPTVHWLFTTCGASGPHGPTQAQCNNAYQNSNLSVEVGSEGPLKGIQIWKVPATDTYSISGYGAAGGKGGKNTMMRSHGVSVLGIFNLEKDDMLYILVGQQGEDACPSTNQLIQKVCIGENNVIEEEIRVNRSVHEWAGGGGGGGGATYVFKMKDGVPVPLIIAAGGGGRAYGAKTDTFHPERLENNSSVLGLNGNSGAAGGGGGWNDNTSLLWAGKSLQEGATGGHSCPQAMKKWGWETRGGFGGGGGGCSSGGGGGGYIGGNAASNNDPEMDGEDGVSFISPLGILYTPALKVMEGHGEVNIKHYLNCSHCEVDECHMDPESHKVICFCDHGTVLAEDGVSCIVSPTPEPHLPLSLILSVVTSALVAALVLAFSGIMIVYRRKHQELQAMQMELQSPEYKLSKLRTSTIMTDYNPNYCFAGKTSSISDLKEVPRKNITLIRGLGHGAFGEVYEGQVSGMPNDPSPLQVAVKTLPEVCSEQDELDFLMEALIISKFNHQNIVRCIGVSLQSLPRFILLELMAGGDLKSFLRETRPRPSQPSSLAMLDLLHVARDIACGCQYLEENHFIHRDIAARNCLLTCPGPGRVAKIGDFGMARDIYRASYYRKGGCAMLPVKWMPPEAFMEGIFTSKTDTWSFGVLLWEIFSLGYMPYPSKSNQEVLEFVTSGGRMDPPKNCPGPVYRIMTQCWQHQPEDRPNFAIILERIEYCTQDPDVINTALPIEYGPLVEEEEKVPVRPKDPEGVPPLLVSQQAKREEERSPAAPPPLPTTSSGKAAKKPTAAEISVRVPRGPAVEGGHVNMAFSQSNPPSELHKVHGSRNKPTSLWNPTYGSWFTEKPTKKNNPIAKKEPHDRGNLGLEGSCTVPPNVATGRLPGASLLLEPSSLTANMKEVPLFRLRHFPCGNVNYGYQQQGLPLEAATAPGAGHYEDTILKSKNSMNQPGP

> <PDB ID(s) of Target Chain>
2XB7,2XBA,3AOX,5FTO,5FTQ,6E0R,6EBW,6EDL,6MX8

> <UniProt (SwissProt) Recommended Name of Target Chain>
ALK tyrosine kinase receptor

> <UniProt (SwissProt) Entry Name of Target Chain>
ALK_HUMAN

> <UniProt (SwissProt) Primary ID of Target Chain>
Q9UM73

> <UniProt (SwissProt) Secondary ID(s) of Target Chain>
Q4ZFX9,Q53QQ6,Q53RZ4,Q59FI3,Q9Y4K6

> <UniProt (SwissProt) Alternative ID(s) of Target Chain>


> <UniProt (TrEMBL) Submitted Name of Target Chain>


> <UniProt (TrEMBL) Entry Name of Target Chain>


> <UniProt (TrEMBL) Primary ID of Target Chain>


> <UniProt (TrEMBL) Secondary ID(s) of Target Chain>


> <UniProt (TrEMBL) Alternative ID(s) of Target Chain>


$$$$
BindingDB_50185278_mol_1

Vconf v2.0 Academic SN VC001-00000579
 21 23  0  0  0  0  0  0  0  0999 V2000
   -3.5570    1.9199    0.0000 C   0  0  0  0  0  0  0  0  0  0  0
   -4.0817    1.2802    0.0000 C   0  0  0  0  0  0  0  0  0  0  0
   -3.7898    0.5083    0.0000 C   0  0  0  0  0  0  0  0  0  0  0
   -2.7449    1.7888    0.0000 C   0  0  0  0  0  0  0  0  0  0  0
   -2.4501    1.0192    0.0000 C   0  0  0  0  0  0  0  0  0  0  0
   -2.9761    0.3759    0.0000 C   0  0  0  0  0  0  0  0  0  0  0
   -2.5266   -0.3232    0.0000 N   0  0  0  0  0  0  0  0  0  0  0
   -1.7231   -0.1117    0.0000 C   0  0  0  0  0  0  0  0  0  0  0
   -1.6759    0.7177    0.0000 C   0  0  0  0  0  0  0  0  0  0  0
   -0.9819    1.1639    0.0000 C   0  0  0  0  0  0  0  0  0  0  0
   -0.2488    0.7860    0.0000 C   0  0  0  0  0  0  0  0  0  0  0
   -1.0214    1.9878    0.0000 O   0  0  0  0  0  0  0  0  0  0  0
   -0.2093   -0.0378    0.0000 O   0  0  0  0  0  0  0  0  0  0  0
    0.4452    1.2322    0.0000 N   0  0  0  0  0  0  0  0  0  0  0
    1.1783    0.8543    0.0000 C   0  0  0  0  0  0  0  0  0  0  0
    1.8723    1.3005    0.0000 C   0  0  0  0  0  0  0  0  0  0  0
    2.6406    1.0056    0.0000 O   0  0  0  0  0  0  0  0  0  0  0
    1.9189    2.1281    0.0000 C   0  0  0  0  0  0  0  0  0  0  0
    2.7165    2.3381    0.0000 C   0  0  0  0  0  0  0  0  0  0  0
    3.1584    1.6453    0.0000 C   0  0  0  0  0  0  0  0  0  0  0
    3.9818    1.5987    0.0000 C   0  0  0  0  0  0  0  0  0  0  0
  9 10  1  0  0  0  0
  5  6  4  0  0  0  0
 10 11  1  0  0  0  0
 10 12  2  0  0  0  0
  2  3  4  0  0  0  0
 11 13  2  0  0  0  0
  3  6  4  0  0  0  0
 11 14  1  0  0  0  0
  1  2  4  0  0  0  0
 14 15  1  0  0  0  0
  5  4  4  0  0  0  0
 15 16  1  0  0  0  0
 16 17  4  0  0  0  0
  6  7  4  0  0  0  0
  7  8  4  0  0  0  0
 17 20  4  0  0  0  0
 19 18  4  0  0  0  0
 18 16  4  0  0  0  0
  8  9  4  0  0  0  0
  9  5  4  0  0  0  0
 19 20  4  0  0  0  0
  4  1  4  0  0  0  0
 20 21  1  0  0  0  0
M  STY  1   1 DAT
M  SAL   1  1   7
M  SDT   1 MRV_IMPLICIT_H                                        
M  SDD   1     0.0000    0.0000    DR    ALL  0       0  
M  SED   1 IMPL_H1
M  END
> <From>
www.bindingDB.org

> <BindingDB Reactant_set_id>
50506576

> <Ligand InChI>
InChI=1S/C24H29ClN5O3P/c1-33-21-14-16(30-12-10-17(31)11-13-30)8-9-19(21)28-24-26-15-18(25)23(29-24)27-20-6-4-5-7-22(20)34(2,3)32/h4-9,14-15,17,31H,10-13H2,1-3H3,(H2,26,27,28,29)

> <Ligand InChI Key>
CCVGHLZQHJYDAI-UHFFFAOYSA-N

> <BindingDB MonomerID>
50185278

> <BindingDB Ligand Name>
CHEMBL3823017

> <Target Name Assigned by Curator or DataSource>
ALK tyrosine kinase receptor

> <Target Source Organism According to Curator or DataSource>
Homo sapiens

> <Ki (nM)>


> <IC50 (nM)>
 0.360000

> <Kd (nM)>


> <EC50 (nM)>


> <kon (M-1-s-1)>


> <koff (s-1)>


> <pH>


> <Temp C>


> <Curation/DataSource>
ChEMBL

> <Article DOI>
10.1021/acs.jmedchem.6b00306

> <PMID>
27144831

> <PubChem AID>


> <Patent Number>


> <Authors>
Huang, WS; Liu, S; Zou, D; Thomas, M; Wang, Y; Zhou, T; Romero, J; Kohlmann, A; Li, F; Qi, J; Cai, L; Dwight, TA; Xu, Y; Xu, R; Dodd, R; Toms, A; Parillon, L; Lu, X; Anjum, R; Zhang, S; Wang, F; Keats, J; Wardwell, SD; Ning, Y; Xu, Q; Moran, LE; Mohemmad, QK; Jang, HG; Clackson, T; Narasimhan, NI; Rivera, VM; Zhu, X; Dalgarno, D; Shakespeare, WC

> <Institution>
ARIAD Pharmaceuticals, Inc.

> <Link to Ligand in BindingDB>
http://www.bindingdb.org/bind/chemsearch/marvin/MolStructure.jsp?monomerid=50185278

> <Link to Ligand-Target Pair in BindingDB>
http://www.bindingdb.org/jsp/dbsearch/PrimarySearch_ki.jsp?energyterm=kJ/mole&tag=pol&polymerid=5809&target=ALK+tyrosine+kinase+receptor&column=ki&startPg=0&Increment=50&submit=Search

> <Link to Ligand-Target Pair in BindingDB>
http://www.bindingdb.org/jsp/dbsearch/PrimarySearch_ki.jsp?energyterm=kJ/mole&tag=r21&monomerid=50185278&enzyme=ALK+tyrosine+kinase+receptor&column=ki&startPg=0&Increment=50&submit=Search

> <Ligand HET ID in PDB>


> <PDB ID(s) for Ligand-Target Complex>


> <PubChem CID>
68165350

> <PubChem SID>
104069498

> <ChEBI ID of Ligand>


> <ChEMBL ID of Ligand>
CHEMBL3823017

> <DrugBank ID of Ligand>


> <IUPHAR_GRAC ID of Ligand>


> <KEGG ID of Ligand>


> <ZINC ID of Ligand>
ZINC13685578

> <Number of Protein Chains in Target (>1 implies a multichain complex)>
1

> <BindingDB Target Chain Sequence>
MGAIGLLWLLPLLLSTAAVGSGMGTGQRAGSPAAGPPLQPREPLSYSRLQRKSLAVDFVVPSLFRVYARDLLLPPSSSELKAGRPEARGSLALDCAPLLRLLGPAPGVSWTAGSPAPAEARTLSRVLKGGSVRKLRRAKQLVLELGEEAILEGCVGPPGEAAVGLLQFNLSELFSWWIRQGEGRLRIRLMPEKKASEVGREGRLSAAIRASQPRLLFQIFGTGHSSLESPTNMPSPSPDYFTWNLTWIMKDSFPFLSHRSRYGLECSFDFPCELEYSPPLHDLRNQSWSWRRIPSEEASQMDLLDGPGAERSKEMPRGSFLLLNTSADSKHTILSPWMRSSSEHCTLAVSVHRHLQPSGRYIAQLLPHNEAAREILLMPTPGKHGWTVLQGRIGRPDNPFRVALEYISSGNRSLSAVDFFALKNCSEGTSPGSKMALQSSFTCWNGTVLQLGQACDFHQDCAQGEDESQMCRKLPVGFYCNFEDGFCGWTQGTLSPHTPQWQVRTLKDARFQDHQDHALLLSTTDVPASESATVTSATFPAPIKSSPCELRMSWLIRGVLRGNVSLVLVENKTGKEQGRMVWHVAAYEGLSLWQWMVLPLLDVSDRFWLQMVAWWGQGSRAIVAFDNISISLDCYLTISGEDKILQNTAPKSRNLFERNPNKELKPGENSPRQTPIFDPTVHWLFTTCGASGPHGPTQAQCNNAYQNSNLSVEVGSEGPLKGIQIWKVPATDTYSISGYGAAGGKGGKNTMMRSHGVSVLGIFNLEKDDMLYILVGQQGEDACPSTNQLIQKVCIGENNVIEEEIRVNRSVHEWAGGGGGGGGATYVFKMKDGVPVPLIIAAGGGGRAYGAKTDTFHPERLENNSSVLGLNGNSGAAGGGGGWNDNTSLLWAGKSLQEGATGGHSCPQAMKKWGWETRGGFGGGGGGCSSGGGGGGYIGGNAASNNDPEMDGEDGVSFISPLGILYTPALKVMEGHGEVNIKHYLNCSHCEVDECHMDPESHKVICFCDHGTVLAEDGVSCIVSPTPEPHLPLSLILSVVTSALVAALVLAFSGIMIVYRRKHQELQAMQMELQSPEYKLSKLRTSTIMTDYNPNYCFAGKTSSISDLKEVPRKNITLIRGLGHGAFGEVYEGQVSGMPNDPSPLQVAVKTLPEVCSEQDELDFLMEALIISKFNHQNIVRCIGVSLQSLPRFILLELMAGGDLKSFLRETRPRPSQPSSLAMLDLLHVARDIACGCQYLEENHFIHRDIAARNCLLTCPGPGRVAKIGDFGMARDIYRASYYRKGGCAMLPVKWMPPEAFMEGIFTSKTDTWSFGVLLWEIFSLGYMPYPSKSNQEVLEFVTSGGRMDPPKNCPGPVYRIMTQCWQHQPEDRPNFAIILERIEYCTQDPDVINTALPIEYGPLVEEEEKVPVRPKDPEGVPPLLVSQQAKREEERSPAAPPPLPTTSSGKAAKKPTAAEISVRVPRGPAVEGGHVNMAFSQSNPPSELHKVHGSRNKPTSLWNPTYGSWFTEKPTKKNNPIAKKEPHDRGNLGLEGSCTVPPNVATGRLPGASLLLEPSSLTANMKEVPLFRLRHFPCGNVNYGYQQQGLPLEAATAPGAGHYEDTILKSKNSMNQPGP

> <PDB ID(s) of Target Chain>
2XB7,2XBA,3AOX,5FTO,5FTQ,6E0R,6EBW,6EDL,6MX8

> <UniProt (SwissProt) Recommended Name of Target Chain>
ALK tyrosine kinase receptor

> <UniProt (SwissProt) Entry Name of Target Chain>
ALK_HUMAN

> <UniProt (SwissProt) Primary ID of Target Chain>
Q9UM73

> <UniProt (SwissProt) Secondary ID(s) of Target Chain>
Q4ZFX9,Q53QQ6,Q53RZ4,Q59FI3,Q9Y4K6

> <UniProt (SwissProt) Alternative ID(s) of Target Chain>


> <UniProt (TrEMBL) Submitted Name of Target Chain>


> <UniProt (TrEMBL) Entry Name of Target Chain>


> <UniProt (TrEMBL) Primary ID of Target Chain>


> <UniProt (TrEMBL) Secondary ID(s) of Target Chain>


> <UniProt (TrEMBL) Alternative ID(s) of Target Chain>


$$$$
BindingDB_50185279_mol_1

Vconf v2.0 Academic SN VC001-00000579
 20 22  0  0  0  0  0  0  0  0999 V2000
   -3.4409   -2.3507    0.0000 C   0  0  0  0  0  0  0  0  0  0  0
   -3.9656   -2.9904    0.0000 C   0  0  0  0  0  0  0  0  0  0  0
   -3.6737   -3.7625    0.0000 C   0  0  0  0  0  0  0  0  0  0  0
   -2.6286   -2.4819    0.0000 C   0  0  0  0  0  0  0  0  0  0  0
   -2.3339   -3.2515    0.0000 C   0  0  0  0  0  0  0  0  0  0  0
   -2.8598   -3.8949    0.0000 C   0  0  0  0  0  0  0  0  0  0  0
   -2.4104   -4.5940    0.0000 N   0  0  0  0  0  0  0  0  0  0  0
   -1.6066   -4.3826    0.0000 C   0  0  0  0  0  0  0  0  0  0  0
   -1.5594   -3.5529    0.0000 C   0  0  0  0  0  0  0  0  0  0  0
   -0.8655   -3.1067    0.0000 C   0  0  0  0  0  0  0  0  0  0  0
   -0.1321   -3.4846    0.0000 C   0  0  0  0  0  0  0  0  0  0  0
   -0.9049   -2.2827    0.0000 O   0  0  0  0  0  0  0  0  0  0  0
   -0.0927   -4.3087    0.0000 O   0  0  0  0  0  0  0  0  0  0  0
    0.5618   -3.0384    0.0000 N   0  0  0  0  0  0  0  0  0  0  0
    1.2952   -3.4163    0.0000 C   0  0  0  0  0  0  0  0  0  0  0
    1.9891   -2.9702    0.0000 C   0  0  0  0  0  0  0  0  0  0  0
    2.7577   -3.2651    0.0000 S   0  0  0  0  0  0  0  0  0  0  0
    2.0358   -2.1423    0.0000 C   0  0  0  0  0  0  0  0  0  0  0
    2.8336   -1.9323    0.0000 C   0  0  0  0  0  0  0  0  0  0  0
    3.2754   -2.6254    0.0000 C   0  0  0  0  0  0  0  0  0  0  0
  4  1  4  0  0  0  0
  9 10  1  0  0  0  0
  5  6  4  0  0  0  0
 10 11  1  0  0  0  0
 10 12  2  0  0  0  0
  2  3  4  0  0  0  0
 11 13  2  0  0  0  0
  3  6  4  0  0  0  0
 11 14  1  0  0  0  0
  1  2  4  0  0  0  0
 14 15  1  0  0  0  0
  5  4  4  0  0  0  0
 15 16  1  0  0  0  0
 16 17  4  0  0  0  0
  6  7  4  0  0  0  0
  7  8  4  0  0  0  0
 17 20  4  0  0  0  0
 19 18  4  0  0  0  0
 18 16  4  0  0  0  0
  8  9  4  0  0  0  0
  9  5  4  0  0  0  0
 19 20  4  0  0  0  0
M  STY  1   1 DAT
M  SAL   1  1   7
M  SDT   1 MRV_IMPLICIT_H                                        
M  SDD   1     0.0000    0.0000    DR    ALL  0       0  
M  SED   1 IMPL_H1
M  END
> <From>
www.bindingDB.org

> <BindingDB Reactant_set_id>
50506577

> <Ligand InChI>
InChI=1S/C25H30ClN6O3P/c1-17(33)31-11-13-32(14-12-31)18-9-10-20(22(15-18)35-2)29-25-27-16-19(26)24(30-25)28-21-7-5-6-8-23(21)36(3,4)34/h5-10,15-16H,11-14H2,1-4H3,(H2,27,28,29,30)

> <Ligand InChI Key>
OGBBOXLWGHVVPQ-UHFFFAOYSA-N

> <BindingDB MonomerID>
50185279

> <BindingDB Ligand Name>
CHEMBL3824007

> <Target Name Assigned by Curator or DataSource>
ALK tyrosine kinase receptor

> <Target Source Organism According to Curator or DataSource>
Homo sapiens

> <Ki (nM)>


> <IC50 (nM)>
 0.590000

> <Kd (nM)>


> <EC50 (nM)>


> <kon (M-1-s-1)>


> <koff (s-1)>


> <pH>


> <Temp C>


> <Curation/DataSource>
ChEMBL

> <Article DOI>
10.1021/acs.jmedchem.6b00306

> <PMID>
27144831

> <PubChem AID>


> <Patent Number>


> <Authors>
Huang, WS; Liu, S; Zou, D; Thomas, M; Wang, Y; Zhou, T; Romero, J; Kohlmann, A; Li, F; Qi, J; Cai, L; Dwight, TA; Xu, Y; Xu, R; Dodd, R; Toms, A; Parillon, L; Lu, X; Anjum, R; Zhang, S; Wang, F; Keats, J; Wardwell, SD; Ning, Y; Xu, Q; Moran, LE; Mohemmad, QK; Jang, HG; Clackson, T; Narasimhan, NI; Rivera, VM; Zhu, X; Dalgarno, D; Shakespeare, WC

> <Institution>
ARIAD Pharmaceuticals, Inc.

> <Link to Ligand in BindingDB>
http://www.bindingdb.org/bind/chemsearch/marvin/MolStructure.jsp?monomerid=50185279

> <Link to Ligand-Target Pair in BindingDB>
http://www.bindingdb.org/jsp/dbsearch/PrimarySearch_ki.jsp?energyterm=kJ/mole&tag=pol&polymerid=5809&target=ALK+tyrosine+kinase+receptor&column=ki&startPg=0&Increment=50&submit=Search

> <Link to Ligand-Target Pair in BindingDB>
http://www.bindingdb.org/jsp/dbsearch/PrimarySearch_ki.jsp?energyterm=kJ/mole&tag=r21&monomerid=50185279&enzyme=ALK+tyrosine+kinase+receptor&column=ki&startPg=0&Increment=50&submit=Search

> <Ligand HET ID in PDB>


> <PDB ID(s) for Ligand-Target Complex>


> <PubChem CID>
68165399

> <PubChem SID>
104069499

> <ChEBI ID of Ligand>


> <ChEMBL ID of Ligand>
CHEMBL3824007

> <DrugBank ID of Ligand>


> <IUPHAR_GRAC ID of Ligand>


> <KEGG ID of Ligand>


> <ZINC ID of Ligand>
ZINC02561962

> <Number of Protein Chains in Target (>1 implies a multichain complex)>
1

> <BindingDB Target Chain Sequence>
MGAIGLLWLLPLLLSTAAVGSGMGTGQRAGSPAAGPPLQPREPLSYSRLQRKSLAVDFVVPSLFRVYARDLLLPPSSSELKAGRPEARGSLALDCAPLLRLLGPAPGVSWTAGSPAPAEARTLSRVLKGGSVRKLRRAKQLVLELGEEAILEGCVGPPGEAAVGLLQFNLSELFSWWIRQGEGRLRIRLMPEKKASEVGREGRLSAAIRASQPRLLFQIFGTGHSSLESPTNMPSPSPDYFTWNLTWIMKDSFPFLSHRSRYGLECSFDFPCELEYSPPLHDLRNQSWSWRRIPSEEASQMDLLDGPGAERSKEMPRGSFLLLNTSADSKHTILSPWMRSSSEHCTLAVSVHRHLQPSGRYIAQLLPHNEAAREILLMPTPGKHGWTVLQGRIGRPDNPFRVALEYISSGNRSLSAVDFFALKNCSEGTSPGSKMALQSSFTCWNGTVLQLGQACDFHQDCAQGEDESQMCRKLPVGFYCNFEDGFCGWTQGTLSPHTPQWQVRTLKDARFQDHQDHALLLSTTDVPASESATVTSATFPAPIKSSPCELRMSWLIRGVLRGNVSLVLVENKTGKEQGRMVWHVAAYEGLSLWQWMVLPLLDVSDRFWLQMVAWWGQGSRAIVAFDNISISLDCYLTISGEDKILQNTAPKSRNLFERNPNKELKPGENSPRQTPIFDPTVHWLFTTCGASGPHGPTQAQCNNAYQNSNLSVEVGSEGPLKGIQIWKVPATDTYSISGYGAAGGKGGKNTMMRSHGVSVLGIFNLEKDDMLYILVGQQGEDACPSTNQLIQKVCIGENNVIEEEIRVNRSVHEWAGGGGGGGGATYVFKMKDGVPVPLIIAAGGGGRAYGAKTDTFHPERLENNSSVLGLNGNSGAAGGGGGWNDNTSLLWAGKSLQEGATGGHSCPQAMKKWGWETRGGFGGGGGGCSSGGGGGGYIGGNAASNNDPEMDGEDGVSFISPLGILYTPALKVMEGHGEVNIKHYLNCSHCEVDECHMDPESHKVICFCDHGTVLAEDGVSCIVSPTPEPHLPLSLILSVVTSALVAALVLAFSGIMIVYRRKHQELQAMQMELQSPEYKLSKLRTSTIMTDYNPNYCFAGKTSSISDLKEVPRKNITLIRGLGHGAFGEVYEGQVSGMPNDPSPLQVAVKTLPEVCSEQDELDFLMEALIISKFNHQNIVRCIGVSLQSLPRFILLELMAGGDLKSFLRETRPRPSQPSSLAMLDLLHVARDIACGCQYLEENHFIHRDIAARNCLLTCPGPGRVAKIGDFGMARDIYRASYYRKGGCAMLPVKWMPPEAFMEGIFTSKTDTWSFGVLLWEIFSLGYMPYPSKSNQEVLEFVTSGGRMDPPKNCPGPVYRIMTQCWQHQPEDRPNFAIILERIEYCTQDPDVINTALPIEYGPLVEEEEKVPVRPKDPEGVPPLLVSQQAKREEERSPAAPPPLPTTSSGKAAKKPTAAEISVRVPRGPAVEGGHVNMAFSQSNPPSELHKVHGSRNKPTSLWNPTYGSWFTEKPTKKNNPIAKKEPHDRGNLGLEGSCTVPPNVATGRLPGASLLLEPSSLTANMKEVPLFRLRHFPCGNVNYGYQQQGLPLEAATAPGAGHYEDTILKSKNSMNQPGP

> <PDB ID(s) of Target Chain>
2XB7,2XBA,3AOX,5FTO,5FTQ,6E0R,6EBW,6EDL,6MX8

> <UniProt (SwissProt) Recommended Name of Target Chain>
ALK tyrosine kinase receptor

> <UniProt (SwissProt) Entry Name of Target Chain>
ALK_HUMAN

> <UniProt (SwissProt) Primary ID of Target Chain>
Q9UM73

> <UniProt (SwissProt) Secondary ID(s) of Target Chain>
Q4ZFX9,Q53QQ6,Q53RZ4,Q59FI3,Q9Y4K6

> <UniProt (SwissProt) Alternative ID(s) of Target Chain>


> <UniProt (TrEMBL) Submitted Name of Target Chain>


> <UniProt (TrEMBL) Entry Name of Target Chain>


> <UniProt (TrEMBL) Primary ID of Target Chain>


> <UniProt (TrEMBL) Secondary ID(s) of Target Chain>


> <UniProt (TrEMBL) Alternative ID(s) of Target Chain>


$$$$
BindingDB_50185280_mol_1

Vconf v2.0 Academic SN VC001-00000579
 23 25  0  0  0  0  0  0  0  0999 V2000
    9.2216   -3.2715    0.0000 C   0  0  0  0  0  0  0  0  0  0  0
    8.6969   -3.9112    0.0000 C   0  0  0  0  0  0  0  0  0  0  0
    8.9888   -4.6834    0.0000 C   0  0  0  0  0  0  0  0  0  0  0
   10.0339   -3.4027    0.0000 C   0  0  0  0  0  0  0  0  0  0  0
   10.3286   -4.1723    0.0000 C   0  0  0  0  0  0  0  0  0  0  0
    9.8027   -4.8157    0.0000 C   0  0  0  0  0  0  0  0  0  0  0
   10.2521   -5.5148    0.0000 N   0  0  0  0  0  0  0  0  0  0  0
   11.0559   -5.3034    0.0000 C   0  0  0  0  0  0  0  0  0  0  0
   11.1031   -4.4737    0.0000 C   0  0  0  0  0  0  0  0  0  0  0
   11.7970   -4.0276    0.0000 C   0  0  0  0  0  0  0  0  0  0  0
   12.5304   -4.4054    0.0000 C   0  0  0  0  0  0  0  0  0  0  0
   11.7576   -3.2035    0.0000 O   0  0  0  0  0  0  0  0  0  0  0
   12.5698   -5.2295    0.0000 O   0  0  0  0  0  0  0  0  0  0  0
   13.2243   -3.9593    0.0000 N   0  0  0  0  0  0  0  0  0  0  0
    8.9298   -2.4954    0.0000 N   0  3  0  0  0  0  0  0  0  0  0
    8.1156   -2.3626    0.0000 O   0  0  0  0  0  0  0  0  0  0  0
    9.4520   -1.8567    0.0000 O   0  5  0  0  0  0  0  0  0  0  0
   13.9577   -4.3372    0.0000 C   0  0  0  0  0  0  0  0  0  0  0
   14.6516   -3.8910    0.0000 C   0  0  0  0  0  0  0  0  0  0  0
   15.4185   -4.1902    0.0000 C   0  0  0  0  0  0  0  0  0  0  0
   15.9406   -3.5514    0.0000 S   0  0  0  0  0  0  0  0  0  0  0
   15.4944   -2.8574    0.0000 C   0  0  0  0  0  0  0  0  0  0  0
   14.6966   -3.0674    0.0000 C   0  0  0  0  0  0  0  0  0  0  0
 10 11  1  0  0  0  0
 10 12  2  0  0  0  0
  2  3  4  0  0  0  0
 11 13  2  0  0  0  0
  3  6  4  0  0  0  0
 11 14  1  0  0  0  0
  1  2  4  0  0  0  0
  5  4  4  0  0  0  0
  6  7  4  0  0  0  0
 15 16  2  0  0  0  0
 15 17  1  0  0  0  0
  1 15  1  0  0  0  0
  7  8  4  0  0  0  0
 14 18  1  0  0  0  0
  8  9  4  0  0  0  0
 18 19  1  0  0  0  0
 19 20  4  0  0  0  0
  9  5  4  0  0  0  0
  4  1  4  0  0  0  0
  9 10  1  0  0  0  0
  5  6  4  0  0  0  0
 20 21  4  0  0  0  0
 21 22  4  0  0  0  0
 22 23  4  0  0  0  0
 23 19  4  0  0  0  0
M  CHG  1  15   1
M  CHG  1  17  -1
M  STY  1   1 DAT
M  SAL   1  1   7
M  SDT   1 MRV_IMPLICIT_H                                        
M  SDD   1     0.0000    0.0000    DR    ALL  0       0  
M  SED   1 IMPL_H1
M  END
> <From>
www.bindingDB.org

> <BindingDB Reactant_set_id>
50506578

> <Ligand InChI>
InChI=1S/C24H30ClN6O2P/c1-30-11-13-31(14-12-30)17-9-10-19(21(15-17)33-2)28-24-26-16-18(25)23(29-24)27-20-7-5-6-8-22(20)34(3,4)32/h5-10,15-16H,11-14H2,1-4H3,(H2,26,27,28,29)

> <Ligand InChI Key>
YHWJHUBPWLCING-UHFFFAOYSA-N

> <BindingDB MonomerID>
50185280

> <BindingDB Ligand Name>
CHEMBL3822611

> <Target Name Assigned by Curator or DataSource>
ALK tyrosine kinase receptor

> <Target Source Organism According to Curator or DataSource>
Homo sapiens

> <Ki (nM)>


> <IC50 (nM)>
 0.180000

> <Kd (nM)>


> <EC50 (nM)>


> <kon (M-1-s-1)>


> <koff (s-1)>


> <pH>


> <Temp C>


> <Curation/DataSource>
ChEMBL

> <Article DOI>
10.1021/acs.jmedchem.6b00306

> <PMID>
27144831

> <PubChem AID>


> <Patent Number>


> <Authors>
Huang, WS; Liu, S; Zou, D; Thomas, M; Wang, Y; Zhou, T; Romero, J; Kohlmann, A; Li, F; Qi, J; Cai, L; Dwight, TA; Xu, Y; Xu, R; Dodd, R; Toms, A; Parillon, L; Lu, X; Anjum, R; Zhang, S; Wang, F; Keats, J; Wardwell, SD; Ning, Y; Xu, Q; Moran, LE; Mohemmad, QK; Jang, HG; Clackson, T; Narasimhan, NI; Rivera, VM; Zhu, X; Dalgarno, D; Shakespeare, WC

> <Institution>
ARIAD Pharmaceuticals, Inc.

> <Link to Ligand in BindingDB>
http://www.bindingdb.org/bind/chemsearch/marvin/MolStructure.jsp?monomerid=50185280

> <Link to Ligand-Target Pair in BindingDB>
http://www.bindingdb.org/jsp/dbsearch/PrimarySearch_ki.jsp?energyterm=kJ/mole&tag=pol&polymerid=5809&target=ALK+tyrosine+kinase+receptor&column=ki&startPg=0&Increment=50&submit=Search

> <Link to Ligand-Target Pair in BindingDB>
http://www.bindingdb.org/jsp/dbsearch/PrimarySearch_ki.jsp?energyterm=kJ/mole&tag=r21&monomerid=50185280&enzyme=ALK+tyrosine+kinase+receptor&column=ki&startPg=0&Increment=50&submit=Search

> <Ligand HET ID in PDB>


> <PDB ID(s) for Ligand-Target Complex>


> <PubChem CID>
56966833

> <PubChem SID>
104069500

> <ChEBI ID of Ligand>


> <ChEMBL ID of Ligand>
CHEMBL3822611

> <DrugBank ID of Ligand>


> <IUPHAR_GRAC ID of Ligand>


> <KEGG ID of Ligand>


> <ZINC ID of Ligand>
ZINC13685620

> <Number of Protein Chains in Target (>1 implies a multichain complex)>
1

> <BindingDB Target Chain Sequence>
MGAIGLLWLLPLLLSTAAVGSGMGTGQRAGSPAAGPPLQPREPLSYSRLQRKSLAVDFVVPSLFRVYARDLLLPPSSSELKAGRPEARGSLALDCAPLLRLLGPAPGVSWTAGSPAPAEARTLSRVLKGGSVRKLRRAKQLVLELGEEAILEGCVGPPGEAAVGLLQFNLSELFSWWIRQGEGRLRIRLMPEKKASEVGREGRLSAAIRASQPRLLFQIFGTGHSSLESPTNMPSPSPDYFTWNLTWIMKDSFPFLSHRSRYGLECSFDFPCELEYSPPLHDLRNQSWSWRRIPSEEASQMDLLDGPGAERSKEMPRGSFLLLNTSADSKHTILSPWMRSSSEHCTLAVSVHRHLQPSGRYIAQLLPHNEAAREILLMPTPGKHGWTVLQGRIGRPDNPFRVALEYISSGNRSLSAVDFFALKNCSEGTSPGSKMALQSSFTCWNGTVLQLGQACDFHQDCAQGEDESQMCRKLPVGFYCNFEDGFCGWTQGTLSPHTPQWQVRTLKDARFQDHQDHALLLSTTDVPASESATVTSATFPAPIKSSPCELRMSWLIRGVLRGNVSLVLVENKTGKEQGRMVWHVAAYEGLSLWQWMVLPLLDVSDRFWLQMVAWWGQGSRAIVAFDNISISLDCYLTISGEDKILQNTAPKSRNLFERNPNKELKPGENSPRQTPIFDPTVHWLFTTCGASGPHGPTQAQCNNAYQNSNLSVEVGSEGPLKGIQIWKVPATDTYSISGYGAAGGKGGKNTMMRSHGVSVLGIFNLEKDDMLYILVGQQGEDACPSTNQLIQKVCIGENNVIEEEIRVNRSVHEWAGGGGGGGGATYVFKMKDGVPVPLIIAAGGGGRAYGAKTDTFHPERLENNSSVLGLNGNSGAAGGGGGWNDNTSLLWAGKSLQEGATGGHSCPQAMKKWGWETRGGFGGGGGGCSSGGGGGGYIGGNAASNNDPEMDGEDGVSFISPLGILYTPALKVMEGHGEVNIKHYLNCSHCEVDECHMDPESHKVICFCDHGTVLAEDGVSCIVSPTPEPHLPLSLILSVVTSALVAALVLAFSGIMIVYRRKHQELQAMQMELQSPEYKLSKLRTSTIMTDYNPNYCFAGKTSSISDLKEVPRKNITLIRGLGHGAFGEVYEGQVSGMPNDPSPLQVAVKTLPEVCSEQDELDFLMEALIISKFNHQNIVRCIGVSLQSLPRFILLELMAGGDLKSFLRETRPRPSQPSSLAMLDLLHVARDIACGCQYLEENHFIHRDIAARNCLLTCPGPGRVAKIGDFGMARDIYRASYYRKGGCAMLPVKWMPPEAFMEGIFTSKTDTWSFGVLLWEIFSLGYMPYPSKSNQEVLEFVTSGGRMDPPKNCPGPVYRIMTQCWQHQPEDRPNFAIILERIEYCTQDPDVINTALPIEYGPLVEEEEKVPVRPKDPEGVPPLLVSQQAKREEERSPAAPPPLPTTSSGKAAKKPTAAEISVRVPRGPAVEGGHVNMAFSQSNPPSELHKVHGSRNKPTSLWNPTYGSWFTEKPTKKNNPIAKKEPHDRGNLGLEGSCTVPPNVATGRLPGASLLLEPSSLTANMKEVPLFRLRHFPCGNVNYGYQQQGLPLEAATAPGAGHYEDTILKSKNSMNQPGP

> <PDB ID(s) of Target Chain>
2XB7,2XBA,3AOX,5FTO,5FTQ,6E0R,6EBW,6EDL,6MX8

> <UniProt (SwissProt) Recommended Name of Target Chain>
ALK tyrosine kinase receptor

> <UniProt (SwissProt) Entry Name of Target Chain>
ALK_HUMAN

> <UniProt (SwissProt) Primary ID of Target Chain>
Q9UM73

> <UniProt (SwissProt) Secondary ID(s) of Target Chain>
Q4ZFX9,Q53QQ6,Q53RZ4,Q59FI3,Q9Y4K6

> <UniProt (SwissProt) Alternative ID(s) of Target Chain>


> <UniProt (TrEMBL) Submitted Name of Target Chain>


> <UniProt (TrEMBL) Entry Name of Target Chain>


> <UniProt (TrEMBL) Primary ID of Target Chain>


> <UniProt (TrEMBL) Secondary ID(s) of Target Chain>


> <UniProt (TrEMBL) Alternative ID(s) of Target Chain>


$$$$
BindingDB_50185286_mol_1

Vconf v2.0 Academic SN VC001-00000579
 20 22  0  0  0  0  0  0  0  0999 V2000
   -2.6159    2.7243    0.0000 C   0  0  0  0  0  0  0  0  0  0  0
   -3.1406    2.0846    0.0000 C   0  0  0  0  0  0  0  0  0  0  0
   -2.8487    1.3125    0.0000 C   0  0  0  0  0  0  0  0  0  0  0
   -1.8036    2.5931    0.0000 C   0  0  0  0  0  0  0  0  0  0  0
   -1.5089    1.8235    0.0000 C   0  0  0  0  0  0  0  0  0  0  0
   -2.0348    1.1801    0.0000 C   0  0  0  0  0  0  0  0  0  0  0
   -1.5854    0.4810    0.0000 N   0  0  0  0  0  0  0  0  0  0  0
   -0.7816    0.6924    0.0000 C   0  0  0  0  0  0  0  0  0  0  0
   -0.7344    1.5221    0.0000 C   0  0  0  0  0  0  0  0  0  0  0
   -0.0405    1.9683    0.0000 C   0  0  0  0  0  0  0  0  0  0  0
    0.6929    1.5904    0.0000 C   0  0  0  0  0  0  0  0  0  0  0
   -0.0799    2.7923    0.0000 O   0  0  0  0  0  0  0  0  0  0  0
    0.7323    0.7663    0.0000 O   0  0  0  0  0  0  0  0  0  0  0
    1.3868    2.0366    0.0000 N   0  0  0  0  0  0  0  0  0  0  0
    2.1202    1.6587    0.0000 C   0  0  0  0  0  0  0  0  0  0  0
    2.8141    2.1048    0.0000 C   0  0  0  0  0  0  0  0  0  0  0
    3.5827    1.8099    0.0000 C   0  0  0  0  0  0  0  0  0  0  0
    4.1048    2.4487    0.0000 O   0  0  0  0  0  0  0  0  0  0  0
    3.6586    3.1427    0.0000 C   0  0  0  0  0  0  0  0  0  0  0
    2.8608    2.9327    0.0000 C   0  0  0  0  0  0  0  0  0  0  0
  4  1  4  0  0  0  0
  9 10  1  0  0  0  0
  5  6  4  0  0  0  0
 10 11  1  0  0  0  0
 10 12  2  0  0  0  0
  2  3  4  0  0  0  0
 11 13  2  0  0  0  0
  3  6  4  0  0  0  0
 11 14  1  0  0  0  0
  1  2  4  0  0  0  0
 14 15  1  0  0  0  0
  5  4  4  0  0  0  0
 15 16  1  0  0  0  0
 16 17  4  0  0  0  0
  6  7  4  0  0  0  0
  7  8  4  0  0  0  0
  8  9  4  0  0  0  0
  9  5  4  0  0  0  0
 17 18  4  0  0  0  0
 18 19  4  0  0  0  0
 19 20  4  0  0  0  0
 20 16  4  0  0  0  0
M  STY  1   1 DAT
M  SAL   1  1   7
M  SDT   1 MRV_IMPLICIT_H                                        
M  SDD   1     0.0000    0.0000    DR    ALL  0       0  
M  SED   1 IMPL_H1
M  END
> <From>
www.bindingDB.org

> <BindingDB Reactant_set_id>
50506585

> <Ligand InChI>
InChI=1S/C20H22ClN4O4PS/c1-29-17-11-13(30(2,3)26)9-10-15(17)24-20-22-12-14(21)19(25-20)23-16-7-5-6-8-18(16)31(4,27)28/h5-12H,1-4H3,(H2,22,23,24,25)

> <Ligand InChI Key>
HFTHUIUDNIONGS-UHFFFAOYSA-N

> <BindingDB MonomerID>
50185286

> <BindingDB Ligand Name>
CHEMBL3823256

> <Target Name Assigned by Curator or DataSource>
ALK tyrosine kinase receptor

> <Target Source Organism According to Curator or DataSource>
Homo sapiens

> <Ki (nM)>


> <IC50 (nM)>
 0.330000

> <Kd (nM)>


> <EC50 (nM)>


> <kon (M-1-s-1)>


> <koff (s-1)>


> <pH>


> <Temp C>


> <Curation/DataSource>
ChEMBL

> <Article DOI>
10.1021/acs.jmedchem.6b00306

> <PMID>
27144831

> <PubChem AID>


> <Patent Number>


> <Authors>
Huang, WS; Liu, S; Zou, D; Thomas, M; Wang, Y; Zhou, T; Romero, J; Kohlmann, A; Li, F; Qi, J; Cai, L; Dwight, TA; Xu, Y; Xu, R; Dodd, R; Toms, A; Parillon, L; Lu, X; Anjum, R; Zhang, S; Wang, F; Keats, J; Wardwell, SD; Ning, Y; Xu, Q; Moran, LE; Mohemmad, QK; Jang, HG; Clackson, T; Narasimhan, NI; Rivera, VM; Zhu, X; Dalgarno, D; Shakespeare, WC

> <Institution>
ARIAD Pharmaceuticals, Inc.

> <Link to Ligand in BindingDB>
http://www.bindingdb.org/bind/chemsearch/marvin/MolStructure.jsp?monomerid=50185286

> <Link to Ligand-Target Pair in BindingDB>
http://www.bindingdb.org/jsp/dbsearch/PrimarySearch_ki.jsp?energyterm=kJ/mole&tag=pol&polymerid=5809&target=ALK+tyrosine+kinase+receptor&column=ki&startPg=0&Increment=50&submit=Search

> <Link to Ligand-Target Pair in BindingDB>
http://www.bindingdb.org/jsp/dbsearch/PrimarySearch_ki.jsp?energyterm=kJ/mole&tag=r21&monomerid=50185286&enzyme=ALK+tyrosine+kinase+receptor&column=ki&startPg=0&Increment=50&submit=Search

> <Ligand HET ID in PDB>


> <PDB ID(s) for Ligand-Target Complex>


> <PubChem CID>
68165328

> <PubChem SID>
104069506

> <ChEBI ID of Ligand>


> <ChEMBL ID of Ligand>
CHEMBL3823256

> <DrugBank ID of Ligand>


> <IUPHAR_GRAC ID of Ligand>


> <KEGG ID of Ligand>


> <ZINC ID of Ligand>
ZINC13685607

> <Number of Protein Chains in Target (>1 implies a multichain complex)>
1

> <BindingDB Target Chain Sequence>
MGAIGLLWLLPLLLSTAAVGSGMGTGQRAGSPAAGPPLQPREPLSYSRLQRKSLAVDFVVPSLFRVYARDLLLPPSSSELKAGRPEARGSLALDCAPLLRLLGPAPGVSWTAGSPAPAEARTLSRVLKGGSVRKLRRAKQLVLELGEEAILEGCVGPPGEAAVGLLQFNLSELFSWWIRQGEGRLRIRLMPEKKASEVGREGRLSAAIRASQPRLLFQIFGTGHSSLESPTNMPSPSPDYFTWNLTWIMKDSFPFLSHRSRYGLECSFDFPCELEYSPPLHDLRNQSWSWRRIPSEEASQMDLLDGPGAERSKEMPRGSFLLLNTSADSKHTILSPWMRSSSEHCTLAVSVHRHLQPSGRYIAQLLPHNEAAREILLMPTPGKHGWTVLQGRIGRPDNPFRVALEYISSGNRSLSAVDFFALKNCSEGTSPGSKMALQSSFTCWNGTVLQLGQACDFHQDCAQGEDESQMCRKLPVGFYCNFEDGFCGWTQGTLSPHTPQWQVRTLKDARFQDHQDHALLLSTTDVPASESATVTSATFPAPIKSSPCELRMSWLIRGVLRGNVSLVLVENKTGKEQGRMVWHVAAYEGLSLWQWMVLPLLDVSDRFWLQMVAWWGQGSRAIVAFDNISISLDCYLTISGEDKILQNTAPKSRNLFERNPNKELKPGENSPRQTPIFDPTVHWLFTTCGASGPHGPTQAQCNNAYQNSNLSVEVGSEGPLKGIQIWKVPATDTYSISGYGAAGGKGGKNTMMRSHGVSVLGIFNLEKDDMLYILVGQQGEDACPSTNQLIQKVCIGENNVIEEEIRVNRSVHEWAGGGGGGGGATYVFKMKDGVPVPLIIAAGGGGRAYGAKTDTFHPERLENNSSVLGLNGNSGAAGGGGGWNDNTSLLWAGKSLQEGATGGHSCPQAMKKWGWETRGGFGGGGGGCSSGGGGGGYIGGNAASNNDPEMDGEDGVSFISPLGILYTPALKVMEGHGEVNIKHYLNCSHCEVDECHMDPESHKVICFCDHGTVLAEDGVSCIVSPTPEPHLPLSLILSVVTSALVAALVLAFSGIMIVYRRKHQELQAMQMELQSPEYKLSKLRTSTIMTDYNPNYCFAGKTSSISDLKEVPRKNITLIRGLGHGAFGEVYEGQVSGMPNDPSPLQVAVKTLPEVCSEQDELDFLMEALIISKFNHQNIVRCIGVSLQSLPRFILLELMAGGDLKSFLRETRPRPSQPSSLAMLDLLHVARDIACGCQYLEENHFIHRDIAARNCLLTCPGPGRVAKIGDFGMARDIYRASYYRKGGCAMLPVKWMPPEAFMEGIFTSKTDTWSFGVLLWEIFSLGYMPYPSKSNQEVLEFVTSGGRMDPPKNCPGPVYRIMTQCWQHQPEDRPNFAIILERIEYCTQDPDVINTALPIEYGPLVEEEEKVPVRPKDPEGVPPLLVSQQAKREEERSPAAPPPLPTTSSGKAAKKPTAAEISVRVPRGPAVEGGHVNMAFSQSNPPSELHKVHGSRNKPTSLWNPTYGSWFTEKPTKKNNPIAKKEPHDRGNLGLEGSCTVPPNVATGRLPGASLLLEPSSLTANMKEVPLFRLRHFPCGNVNYGYQQQGLPLEAATAPGAGHYEDTILKSKNSMNQPGP

> <PDB ID(s) of Target Chain>
2XB7,2XBA,3AOX,5FTO,5FTQ,6E0R,6EBW,6EDL,6MX8

> <UniProt (SwissProt) Recommended Name of Target Chain>
ALK tyrosine kinase receptor

> <UniProt (SwissProt) Entry Name of Target Chain>
ALK_HUMAN

> <UniProt (SwissProt) Primary ID of Target Chain>
Q9UM73

> <UniProt (SwissProt) Secondary ID(s) of Target Chain>
Q4ZFX9,Q53QQ6,Q53RZ4,Q59FI3,Q9Y4K6

> <UniProt (SwissProt) Alternative ID(s) of Target Chain>


> <UniProt (TrEMBL) Submitted Name of Target Chain>


> <UniProt (TrEMBL) Entry Name of Target Chain>


> <UniProt (TrEMBL) Primary ID of Target Chain>


> <UniProt (TrEMBL) Secondary ID(s) of Target Chain>


> <UniProt (TrEMBL) Alternative ID(s) of Target Chain>


$$$$
BindingDB_50185290_mol_1

Vconf v2.0 Academic SN VC001-00000579
 20 21  0  0  0  0  0  0  0  0999 V2000
   -2.1731    2.2982    0.0000 C   0  0  0  0  0  0  0  0  0  0  0
   -2.1742    1.4713    0.0000 C   0  0  0  0  0  0  0  0  0  0  0
   -1.4598    1.0587    0.0000 C   0  0  0  0  0  0  0  0  0  0  0
   -0.7439    1.4718    0.0000 C   0  0  0  0  0  0  0  0  0  0  0
   -0.7467    2.3018    0.0000 C   0  0  0  0  0  0  0  0  0  0  0
   -1.4616    2.7107    0.0000 N   0  0  0  0  0  0  0  0  0  0  0
   -0.0294    1.0592    0.0000 C   0  0  0  0  0  0  0  0  0  0  0
    0.6866    1.4722    0.0000 C   0  0  0  0  0  0  0  0  0  0  0
    0.6837    2.3023    0.0000 C   0  0  0  0  0  0  0  0  0  0  0
   -0.0312    2.7112    0.0000 C   0  0  0  0  0  0  0  0  0  0  0
   -1.4600    0.2342    0.0000 O   0  0  0  0  0  0  0  0  0  0  0
   -2.8886    1.0597    0.0000 C   0  0  0  0  0  0  0  0  0  0  0
   -3.6023    1.4724    0.0000 O   0  0  0  0  0  0  0  0  0  0  0
   -2.8893    0.2352    0.0000 O   0  0  0  0  0  0  0  0  0  0  0
   -3.6037   -0.1766    0.0000 C   0  0  0  0  0  0  0  0  0  0  0
   -3.6043   -1.0011    0.0000 C   0  0  0  0  0  0  0  0  0  0  0
    1.4013    1.0612    0.0000 C   0  0  0  0  0  0  0  0  0  0  0
    0.9827    0.3498    0.0000 F   0  0  0  0  0  0  0  0  0  0  0
    1.8072    1.7782    0.0000 F   0  0  0  0  0  0  0  0  0  0  0
    2.1113    0.6496    0.0000 F   0  0  0  0  0  0  0  0  0  0  0
  9 10  4  0  0  0  0
 10  5  4  0  0  0  0
  2  3  4  0  0  0  0
  3 11  1  0  0  0  0
  5  6  4  0  0  0  0
  2 12  1  0  0  0  0
  6  1  4  0  0  0  0
 12 13  2  0  0  0  0
  1  2  4  0  0  0  0
 12 14  1  0  0  0  0
  4  7  4  0  0  0  0
 14 15  1  0  0  0  0
  3  4  4  0  0  0  0
 15 16  1  0  0  0  0
  7  8  4  0  0  0  0
  8 17  1  0  0  0  0
 17 18  1  0  0  0  0
  8  9  4  0  0  0  0
 17 19  1  0  0  0  0
  4  5  4  0  0  0  0
 17 20  1  0  0  0  0
M  END
> <From>
www.bindingDB.org

> <BindingDB Reactant_set_id>
50506589

> <Ligand InChI>
InChI=1S/C22H26ClN4O4PS/c1-14(2)33(29,30)20-9-7-6-8-18(20)25-21-16(23)13-24-22(27-21)26-17-11-10-15(32(4,5)28)12-19(17)31-3/h6-14H,1-5H3,(H2,24,25,26,27)

> <Ligand InChI Key>
BHLTVGNUTOSHBD-UHFFFAOYSA-N

> <BindingDB MonomerID>
50185290

> <BindingDB Ligand Name>
CHEMBL3824304

> <Target Name Assigned by Curator or DataSource>
ALK tyrosine kinase receptor

> <Target Source Organism According to Curator or DataSource>
Homo sapiens

> <Ki (nM)>


> <IC50 (nM)>
 0.310000

> <Kd (nM)>


> <EC50 (nM)>


> <kon (M-1-s-1)>


> <koff (s-1)>


> <pH>


> <Temp C>


> <Curation/DataSource>
ChEMBL

> <Article DOI>
10.1021/acs.jmedchem.6b00306

> <PMID>
27144831

> <PubChem AID>


> <Patent Number>


> <Authors>
Huang, WS; Liu, S; Zou, D; Thomas, M; Wang, Y; Zhou, T; Romero, J; Kohlmann, A; Li, F; Qi, J; Cai, L; Dwight, TA; Xu, Y; Xu, R; Dodd, R; Toms, A; Parillon, L; Lu, X; Anjum, R; Zhang, S; Wang, F; Keats, J; Wardwell, SD; Ning, Y; Xu, Q; Moran, LE; Mohemmad, QK; Jang, HG; Clackson, T; Narasimhan, NI; Rivera, VM; Zhu, X; Dalgarno, D; Shakespeare, WC

> <Institution>
ARIAD Pharmaceuticals, Inc.

> <Link to Ligand in BindingDB>
http://www.bindingdb.org/bind/chemsearch/marvin/MolStructure.jsp?monomerid=50185290

> <Link to Ligand-Target Pair in BindingDB>
http://www.bindingdb.org/jsp/dbsearch/PrimarySearch_ki.jsp?energyterm=kJ/mole&tag=pol&polymerid=5809&target=ALK+tyrosine+kinase+receptor&column=ki&startPg=0&Increment=50&submit=Search

> <Link to Ligand-Target Pair in BindingDB>
http://www.bindingdb.org/jsp/dbsearch/PrimarySearch_ki.jsp?energyterm=kJ/mole&tag=r21&monomerid=50185290&enzyme=ALK+tyrosine+kinase+receptor&column=ki&startPg=0&Increment=50&submit=Search

> <Ligand HET ID in PDB>


> <PDB ID(s) for Ligand-Target Complex>


> <PubChem CID>
68156947

> <PubChem SID>
104069510

> <ChEBI ID of Ligand>


> <ChEMBL ID of Ligand>
CHEMBL3824304

> <DrugBank ID of Ligand>


> <IUPHAR_GRAC ID of Ligand>


> <KEGG ID of Ligand>


> <ZINC ID of Ligand>
ZINC08870911

> <Number of Protein Chains in Target (>1 implies a multichain complex)>
1

> <BindingDB Target Chain Sequence>
MGAIGLLWLLPLLLSTAAVGSGMGTGQRAGSPAAGPPLQPREPLSYSRLQRKSLAVDFVVPSLFRVYARDLLLPPSSSELKAGRPEARGSLALDCAPLLRLLGPAPGVSWTAGSPAPAEARTLSRVLKGGSVRKLRRAKQLVLELGEEAILEGCVGPPGEAAVGLLQFNLSELFSWWIRQGEGRLRIRLMPEKKASEVGREGRLSAAIRASQPRLLFQIFGTGHSSLESPTNMPSPSPDYFTWNLTWIMKDSFPFLSHRSRYGLECSFDFPCELEYSPPLHDLRNQSWSWRRIPSEEASQMDLLDGPGAERSKEMPRGSFLLLNTSADSKHTILSPWMRSSSEHCTLAVSVHRHLQPSGRYIAQLLPHNEAAREILLMPTPGKHGWTVLQGRIGRPDNPFRVALEYISSGNRSLSAVDFFALKNCSEGTSPGSKMALQSSFTCWNGTVLQLGQACDFHQDCAQGEDESQMCRKLPVGFYCNFEDGFCGWTQGTLSPHTPQWQVRTLKDARFQDHQDHALLLSTTDVPASESATVTSATFPAPIKSSPCELRMSWLIRGVLRGNVSLVLVENKTGKEQGRMVWHVAAYEGLSLWQWMVLPLLDVSDRFWLQMVAWWGQGSRAIVAFDNISISLDCYLTISGEDKILQNTAPKSRNLFERNPNKELKPGENSPRQTPIFDPTVHWLFTTCGASGPHGPTQAQCNNAYQNSNLSVEVGSEGPLKGIQIWKVPATDTYSISGYGAAGGKGGKNTMMRSHGVSVLGIFNLEKDDMLYILVGQQGEDACPSTNQLIQKVCIGENNVIEEEIRVNRSVHEWAGGGGGGGGATYVFKMKDGVPVPLIIAAGGGGRAYGAKTDTFHPERLENNSSVLGLNGNSGAAGGGGGWNDNTSLLWAGKSLQEGATGGHSCPQAMKKWGWETRGGFGGGGGGCSSGGGGGGYIGGNAASNNDPEMDGEDGVSFISPLGILYTPALKVMEGHGEVNIKHYLNCSHCEVDECHMDPESHKVICFCDHGTVLAEDGVSCIVSPTPEPHLPLSLILSVVTSALVAALVLAFSGIMIVYRRKHQELQAMQMELQSPEYKLSKLRTSTIMTDYNPNYCFAGKTSSISDLKEVPRKNITLIRGLGHGAFGEVYEGQVSGMPNDPSPLQVAVKTLPEVCSEQDELDFLMEALIISKFNHQNIVRCIGVSLQSLPRFILLELMAGGDLKSFLRETRPRPSQPSSLAMLDLLHVARDIACGCQYLEENHFIHRDIAARNCLLTCPGPGRVAKIGDFGMARDIYRASYYRKGGCAMLPVKWMPPEAFMEGIFTSKTDTWSFGVLLWEIFSLGYMPYPSKSNQEVLEFVTSGGRMDPPKNCPGPVYRIMTQCWQHQPEDRPNFAIILERIEYCTQDPDVINTALPIEYGPLVEEEEKVPVRPKDPEGVPPLLVSQQAKREEERSPAAPPPLPTTSSGKAAKKPTAAEISVRVPRGPAVEGGHVNMAFSQSNPPSELHKVHGSRNKPTSLWNPTYGSWFTEKPTKKNNPIAKKEPHDRGNLGLEGSCTVPPNVATGRLPGASLLLEPSSLTANMKEVPLFRLRHFPCGNVNYGYQQQGLPLEAATAPGAGHYEDTILKSKNSMNQPGP

> <PDB ID(s) of Target Chain>
2XB7,2XBA,3AOX,5FTO,5FTQ,6E0R,6EBW,6EDL,6MX8

> <UniProt (SwissProt) Recommended Name of Target Chain>
ALK tyrosine kinase receptor

> <UniProt (SwissProt) Entry Name of Target Chain>
ALK_HUMAN

> <UniProt (SwissProt) Primary ID of Target Chain>
Q9UM73

> <UniProt (SwissProt) Secondary ID(s) of Target Chain>
Q4ZFX9,Q53QQ6,Q53RZ4,Q59FI3,Q9Y4K6

> <UniProt (SwissProt) Alternative ID(s) of Target Chain>


> <UniProt (TrEMBL) Submitted Name of Target Chain>


> <UniProt (TrEMBL) Entry Name of Target Chain>


> <UniProt (TrEMBL) Primary ID of Target Chain>


> <UniProt (TrEMBL) Secondary ID(s) of Target Chain>


> <UniProt (TrEMBL) Alternative ID(s) of Target Chain>


$$$$
BindingDB_50185294_mol_1

Vconf v2.0 Academic SN VC001-00000579
 18 19  0  0  0  0  0  0  0  0999 V2000
   -2.8602  -12.9053    0.0000 C   0  0  0  0  0  0  0  0  0  0  0
   -2.8613  -13.7322    0.0000 C   0  0  0  0  0  0  0  0  0  0  0
   -2.1469  -14.1449    0.0000 C   0  0  0  0  0  0  0  0  0  0  0
   -1.4310  -13.7317    0.0000 C   0  0  0  0  0  0  0  0  0  0  0
   -1.4338  -12.9017    0.0000 C   0  0  0  0  0  0  0  0  0  0  0
   -2.1487  -12.4929    0.0000 N   0  0  0  0  0  0  0  0  0  0  0
   -0.7165  -14.1444    0.0000 C   0  0  0  0  0  0  0  0  0  0  0
   -0.0005  -13.7313    0.0000 C   0  0  0  0  0  0  0  0  0  0  0
   -0.0034  -12.9012    0.0000 C   0  0  0  0  0  0  0  0  0  0  0
   -0.7183  -12.4924    0.0000 C   0  0  0  0  0  0  0  0  0  0  0
   -2.1471  -14.9694    0.0000 O   0  0  0  0  0  0  0  0  0  0  0
   -3.5757  -14.1439    0.0000 C   0  0  0  0  0  0  0  0  0  0  0
   -4.2894  -13.7311    0.0000 O   0  0  0  0  0  0  0  0  0  0  0
   -3.5764  -14.9684    0.0000 O   0  0  0  0  0  0  0  0  0  0  0
   -2.8626  -15.3813    0.0000 C   0  0  0  0  0  0  0  0  0  0  0
   -2.8633  -16.2058    0.0000 C   0  0  0  0  0  0  0  0  0  0  0
    0.7142  -14.1424    0.0000 Br  0  0  0  0  0  0  0  0  0  0  0
   -3.5743  -12.4933    0.0000 C   0  0  0  0  0  0  0  0  0  0  0
  8  9  4  0  0  0  0
  4  5  4  0  0  0  0
  9 10  4  0  0  0  0
 10  5  4  0  0  0  0
  2  3  4  0  0  0  0
  3 11  1  0  0  0  0
  5  6  4  0  0  0  0
  2 12  1  0  0  0  0
  6  1  4  0  0  0  0
 12 13  2  0  0  0  0
  1  2  4  0  0  0  0
 12 14  1  0  0  0  0
  4  7  4  0  0  0  0
 14 15  1  0  0  0  0
  3  4  4  0  0  0  0
 15 16  1  0  0  0  0
  7  8  4  0  0  0  0
  8 17  1  0  0  0  0
  1 18  1  0  0  0  0
M  END
> <From>
www.bindingDB.org

> <BindingDB Reactant_set_id>
50506583

> <Ligand InChI>
InChI=1S/C20H21ClN4O3S/c1-13(2)29(26,27)18-11-7-5-9-16(18)23-19-14(21)12-22-20(25-19)24-15-8-4-6-10-17(15)28-3/h4-13H,1-3H3,(H2,22,23,24,25)

> <Ligand InChI Key>
VUVXJGVUKPHRAQ-UHFFFAOYSA-N

> <BindingDB MonomerID>
50185294

> <BindingDB Ligand Name>
CHEMBL3822973

> <Target Name Assigned by Curator or DataSource>
ALK tyrosine kinase receptor

> <Target Source Organism According to Curator or DataSource>
Homo sapiens

> <Ki (nM)>


> <IC50 (nM)>
 2.1

> <Kd (nM)>


> <EC50 (nM)>


> <kon (M-1-s-1)>


> <koff (s-1)>


> <pH>


> <Temp C>


> <Curation/DataSource>
ChEMBL

> <Article DOI>
10.1021/acs.jmedchem.6b00306

> <PMID>
27144831

> <PubChem AID>


> <Patent Number>


> <Authors>
Huang, WS; Liu, S; Zou, D; Thomas, M; Wang, Y; Zhou, T; Romero, J; Kohlmann, A; Li, F; Qi, J; Cai, L; Dwight, TA; Xu, Y; Xu, R; Dodd, R; Toms, A; Parillon, L; Lu, X; Anjum, R; Zhang, S; Wang, F; Keats, J; Wardwell, SD; Ning, Y; Xu, Q; Moran, LE; Mohemmad, QK; Jang, HG; Clackson, T; Narasimhan, NI; Rivera, VM; Zhu, X; Dalgarno, D; Shakespeare, WC

> <Institution>
ARIAD Pharmaceuticals, Inc.

> <Link to Ligand in BindingDB>
http://www.bindingdb.org/bind/chemsearch/marvin/MolStructure.jsp?monomerid=50185294

> <Link to Ligand-Target Pair in BindingDB>
http://www.bindingdb.org/jsp/dbsearch/PrimarySearch_ki.jsp?energyterm=kJ/mole&tag=pol&polymerid=5809&target=ALK+tyrosine+kinase+receptor&column=ki&startPg=0&Increment=50&submit=Search

> <Link to Ligand-Target Pair in BindingDB>
http://www.bindingdb.org/jsp/dbsearch/PrimarySearch_ki.jsp?energyterm=kJ/mole&tag=r21&monomerid=50185294&enzyme=ALK+tyrosine+kinase+receptor&column=ki&startPg=0&Increment=50&submit=Search

> <Ligand HET ID in PDB>


> <PDB ID(s) for Ligand-Target Complex>


> <PubChem CID>
68165441

> <PubChem SID>
104069514

> <ChEBI ID of Ligand>


> <ChEMBL ID of Ligand>
CHEMBL3822973

> <DrugBank ID of Ligand>


> <IUPHAR_GRAC ID of Ligand>


> <KEGG ID of Ligand>


> <ZINC ID of Ligand>
ZINC13685792

> <Number of Protein Chains in Target (>1 implies a multichain complex)>
1

> <BindingDB Target Chain Sequence>
MGAIGLLWLLPLLLSTAAVGSGMGTGQRAGSPAAGPPLQPREPLSYSRLQRKSLAVDFVVPSLFRVYARDLLLPPSSSELKAGRPEARGSLALDCAPLLRLLGPAPGVSWTAGSPAPAEARTLSRVLKGGSVRKLRRAKQLVLELGEEAILEGCVGPPGEAAVGLLQFNLSELFSWWIRQGEGRLRIRLMPEKKASEVGREGRLSAAIRASQPRLLFQIFGTGHSSLESPTNMPSPSPDYFTWNLTWIMKDSFPFLSHRSRYGLECSFDFPCELEYSPPLHDLRNQSWSWRRIPSEEASQMDLLDGPGAERSKEMPRGSFLLLNTSADSKHTILSPWMRSSSEHCTLAVSVHRHLQPSGRYIAQLLPHNEAAREILLMPTPGKHGWTVLQGRIGRPDNPFRVALEYISSGNRSLSAVDFFALKNCSEGTSPGSKMALQSSFTCWNGTVLQLGQACDFHQDCAQGEDESQMCRKLPVGFYCNFEDGFCGWTQGTLSPHTPQWQVRTLKDARFQDHQDHALLLSTTDVPASESATVTSATFPAPIKSSPCELRMSWLIRGVLRGNVSLVLVENKTGKEQGRMVWHVAAYEGLSLWQWMVLPLLDVSDRFWLQMVAWWGQGSRAIVAFDNISISLDCYLTISGEDKILQNTAPKSRNLFERNPNKELKPGENSPRQTPIFDPTVHWLFTTCGASGPHGPTQAQCNNAYQNSNLSVEVGSEGPLKGIQIWKVPATDTYSISGYGAAGGKGGKNTMMRSHGVSVLGIFNLEKDDMLYILVGQQGEDACPSTNQLIQKVCIGENNVIEEEIRVNRSVHEWAGGGGGGGGATYVFKMKDGVPVPLIIAAGGGGRAYGAKTDTFHPERLENNSSVLGLNGNSGAAGGGGGWNDNTSLLWAGKSLQEGATGGHSCPQAMKKWGWETRGGFGGGGGGCSSGGGGGGYIGGNAASNNDPEMDGEDGVSFISPLGILYTPALKVMEGHGEVNIKHYLNCSHCEVDECHMDPESHKVICFCDHGTVLAEDGVSCIVSPTPEPHLPLSLILSVVTSALVAALVLAFSGIMIVYRRKHQELQAMQMELQSPEYKLSKLRTSTIMTDYNPNYCFAGKTSSISDLKEVPRKNITLIRGLGHGAFGEVYEGQVSGMPNDPSPLQVAVKTLPEVCSEQDELDFLMEALIISKFNHQNIVRCIGVSLQSLPRFILLELMAGGDLKSFLRETRPRPSQPSSLAMLDLLHVARDIACGCQYLEENHFIHRDIAARNCLLTCPGPGRVAKIGDFGMARDIYRASYYRKGGCAMLPVKWMPPEAFMEGIFTSKTDTWSFGVLLWEIFSLGYMPYPSKSNQEVLEFVTSGGRMDPPKNCPGPVYRIMTQCWQHQPEDRPNFAIILERIEYCTQDPDVINTALPIEYGPLVEEEEKVPVRPKDPEGVPPLLVSQQAKREEERSPAAPPPLPTTSSGKAAKKPTAAEISVRVPRGPAVEGGHVNMAFSQSNPPSELHKVHGSRNKPTSLWNPTYGSWFTEKPTKKNNPIAKKEPHDRGNLGLEGSCTVPPNVATGRLPGASLLLEPSSLTANMKEVPLFRLRHFPCGNVNYGYQQQGLPLEAATAPGAGHYEDTILKSKNSMNQPGP

> <PDB ID(s) of Target Chain>
2XB7,2XBA,3AOX,5FTO,5FTQ,6E0R,6EBW,6EDL,6MX8

> <UniProt (SwissProt) Recommended Name of Target Chain>
ALK tyrosine kinase receptor

> <UniProt (SwissProt) Entry Name of Target Chain>
ALK_HUMAN

> <UniProt (SwissProt) Primary ID of Target Chain>
Q9UM73

> <UniProt (SwissProt) Secondary ID(s) of Target Chain>
Q4ZFX9,Q53QQ6,Q53RZ4,Q59FI3,Q9Y4K6

> <UniProt (SwissProt) Alternative ID(s) of Target Chain>


> <UniProt (TrEMBL) Submitted Name of Target Chain>


> <UniProt (TrEMBL) Entry Name of Target Chain>


> <UniProt (TrEMBL) Primary ID of Target Chain>


> <UniProt (TrEMBL) Secondary ID(s) of Target Chain>


> <UniProt (TrEMBL) Alternative ID(s) of Target Chain>


$$$$

  SciTegic12211710102D

 43 47  0  0  0  0            999 V2000
    8.0533   -8.5948    0.0000 C   0  0
    8.0418   -6.9365    0.0000 C   0  0
    8.7624   -7.3517    0.0000 C   0  0
    8.7677   -8.1818    0.0000 C   0  0
    7.3176   -7.3581    0.0000 C   0  0
    7.3289   -8.1856    0.0000 C   0  0
    6.7100   -8.6695    0.0000 C   0  0
    6.6778   -6.8688    0.0000 C   0  0
    5.9045   -7.0744    0.0000 C   0  0
    5.5736   -7.8422    0.0000 C   0  0
    5.9346   -8.5205    0.0000 C   0  0
    8.0535   -9.4321    0.0000 O   0  0
    7.3360   -9.8509    0.0000 C   0  0
    9.4924   -8.5905    0.0000 N   0  0
   10.2127   -8.1742    0.0000 C   0  0
   10.9300   -8.5922    0.0000 N   0  0
   11.6445   -8.1743    0.0000 C   0  0
   11.6439   -7.3412    0.0000 C   0  0
   10.9155   -6.9300    0.0000 C   0  0
   10.2048   -7.3497    0.0000 N   0  0
   12.3653   -8.5905    0.0000 N   0  0
   12.3582   -6.9239    0.0000 Cl  0  0
    5.3623   -6.4543    0.0000 N   0  0
    5.6326   -5.6769    0.0000 C   0  0
    5.0939   -5.0544    0.0000 C   0  0
    4.2849   -5.2066    0.0000 N   0  0
    4.0105   -5.9863    0.0000 C   0  0
    4.5492   -6.6115    0.0000 C   0  0
    3.7433   -4.5763    0.0000 C   0  0
   13.0790   -8.1785    0.0000 C   0  0
   13.7891   -8.5940    0.0000 C   0  0
   14.5023   -8.1827    0.0000 C   0  0
   14.5028   -7.3577    0.0000 C   0  0
   13.7842   -6.9458    0.0000 C   0  0
   13.0738   -7.3595    0.0000 C   0  0
    2.9334   -4.7290    0.0000 C   0  0
    2.3964   -4.1039    0.0000 O   0  0
   13.7865   -9.4181    0.0000 S   0  0
   14.4989   -9.8324    0.0000 N   0  0
   14.4962  -10.6565    0.0000 C   0  0
   15.2138   -9.4226    0.0000 C   0  0
   12.9605   -9.4121    0.0000 O   0  0
   13.5682  -10.2113    0.0000 O   0  0
  1  6  2  0
  5  2  2  0
  2  3  1  0
  3  4  2  0
  4  1  1  0
  5  6  1  0
  6  7  1  0
  5  8  1  0
  9 10  1  0
 10 11  1  0
 11  7  1  0
  8  9  1  0
 12 13  1  0
  1 12  1  0
  4 14  1  0
 14 15  1  0
 15 16  2  0
 16 17  1  0
 17 18  2  0
 18 19  1  0
 19 20  2  0
 20 15  1  0
 17 21  1  0
 18 22  1  0
 23 24  1  0
 23 28  1  0
 24 25  1  0
 25 26  1  0
 26 27  1  0
 27 28  1  0
  9 23  1  0
 26 29  1  0
 21 30  1  0
 30 31  2  0
 31 32  1  0
 32 33  2  0
 33 34  1  0
 34 35  2  0
 35 30  1  0
 29 36  1  0
 36 37  1  0
 31 38  1  0
 38 39  1  0
 39 40  1  0
 39 41  1  0
 38 42  2  0
 38 43  2  0
M  END
> <From>
www.bindingDB.org

> <BindingDB Reactant_set_id>
50520524

> <Ligand InChI>
InChI=1S/C30H40ClN7O4S/c1-36(2)43(40,41)27-10-5-4-9-25(27)33-29-24(31)20-32-30(35-29)34-26-12-11-21-19-22(7-6-8-23(21)28(26)42-3)38-15-13-37(14-16-38)17-18-39/h4-5,9-12,20,22,39H,6-8,13-19H2,1-3H3,(H2,32,33,34,35)

> <Ligand InChI Key>
MNJPFSBAYJQZOE-UHFFFAOYSA-N

> <BindingDB MonomerID>
50193817

> <BindingDB Ligand Name>
CHEMBL3918616

> <Target Name Assigned by Curator or DataSource>
ALK tyrosine kinase receptor

> <Target Source Organism According to Curator or DataSource>
Homo sapiens

> <Ki (nM)>


> <IC50 (nM)>
 40

> <Kd (nM)>


> <EC50 (nM)>


> <kon (M-1-s-1)>


> <koff (s-1)>


> <pH>


> <Temp C>


> <Curation/DataSource>
ChEMBL

> <Article DOI>
10.1021/acs.jmedchem.6b00487

> <PMID>
27527804

> <PubChem AID>


> <Patent Number>


> <Authors>
Ott, GR; Cheng, M; Learn, KS; Wagner, J; Gingrich, DE; Lisko, JG; Curry, M; Mesaros, EF; Ghose, AK; Quail, MR; Wan, W; Lu, L; Dobrzanski, P; Albom, MS; Angeles, TS; Wells-Knecht, K; Huang, Z; Aimone, LD; Bruckheimer, E; Anderson, N; Friedman, J; Fernandez, SV; Ator, MA; Ruggeri, BA; Dorsey, BD

> <Institution>
Teva Branded Pharmaceutical Products R&amp;D

> <Link to Ligand in BindingDB>
http://www.bindingdb.org/bind/chemsearch/marvin/MolStructure.jsp?monomerid=50193817

> <Link to Ligand-Target Pair in BindingDB>
http://www.bindingdb.org/jsp/dbsearch/PrimarySearch_ki.jsp?energyterm=kJ/mole&tag=pol&polymerid=5809&target=ALK+tyrosine+kinase+receptor&column=ki&startPg=0&Increment=50&submit=Search

> <Link to Ligand-Target Pair in BindingDB>
http://www.bindingdb.org/jsp/dbsearch/PrimarySearch_ki.jsp?energyterm=kJ/mole&tag=r21&monomerid=50193817&enzyme=ALK+tyrosine+kinase+receptor&column=ki&startPg=0&Increment=50&submit=Search

> <Ligand HET ID in PDB>


> <PDB ID(s) for Ligand-Target Complex>


> <PubChem CID>
117955548

> <PubChem SID>
375076337

> <ChEBI ID of Ligand>


> <ChEMBL ID of Ligand>
CHEMBL3918616

> <DrugBank ID of Ligand>


> <IUPHAR_GRAC ID of Ligand>


> <KEGG ID of Ligand>


> <ZINC ID of Ligand>


> <Number of Protein Chains in Target (>1 implies a multichain complex)>
1

> <BindingDB Target Chain Sequence>
MGAIGLLWLLPLLLSTAAVGSGMGTGQRAGSPAAGPPLQPREPLSYSRLQRKSLAVDFVVPSLFRVYARDLLLPPSSSELKAGRPEARGSLALDCAPLLRLLGPAPGVSWTAGSPAPAEARTLSRVLKGGSVRKLRRAKQLVLELGEEAILEGCVGPPGEAAVGLLQFNLSELFSWWIRQGEGRLRIRLMPEKKASEVGREGRLSAAIRASQPRLLFQIFGTGHSSLESPTNMPSPSPDYFTWNLTWIMKDSFPFLSHRSRYGLECSFDFPCELEYSPPLHDLRNQSWSWRRIPSEEASQMDLLDGPGAERSKEMPRGSFLLLNTSADSKHTILSPWMRSSSEHCTLAVSVHRHLQPSGRYIAQLLPHNEAAREILLMPTPGKHGWTVLQGRIGRPDNPFRVALEYISSGNRSLSAVDFFALKNCSEGTSPGSKMALQSSFTCWNGTVLQLGQACDFHQDCAQGEDESQMCRKLPVGFYCNFEDGFCGWTQGTLSPHTPQWQVRTLKDARFQDHQDHALLLSTTDVPASESATVTSATFPAPIKSSPCELRMSWLIRGVLRGNVSLVLVENKTGKEQGRMVWHVAAYEGLSLWQWMVLPLLDVSDRFWLQMVAWWGQGSRAIVAFDNISISLDCYLTISGEDKILQNTAPKSRNLFERNPNKELKPGENSPRQTPIFDPTVHWLFTTCGASGPHGPTQAQCNNAYQNSNLSVEVGSEGPLKGIQIWKVPATDTYSISGYGAAGGKGGKNTMMRSHGVSVLGIFNLEKDDMLYILVGQQGEDACPSTNQLIQKVCIGENNVIEEEIRVNRSVHEWAGGGGGGGGATYVFKMKDGVPVPLIIAAGGGGRAYGAKTDTFHPERLENNSSVLGLNGNSGAAGGGGGWNDNTSLLWAGKSLQEGATGGHSCPQAMKKWGWETRGGFGGGGGGCSSGGGGGGYIGGNAASNNDPEMDGEDGVSFISPLGILYTPALKVMEGHGEVNIKHYLNCSHCEVDECHMDPESHKVICFCDHGTVLAEDGVSCIVSPTPEPHLPLSLILSVVTSALVAALVLAFSGIMIVYRRKHQELQAMQMELQSPEYKLSKLRTSTIMTDYNPNYCFAGKTSSISDLKEVPRKNITLIRGLGHGAFGEVYEGQVSGMPNDPSPLQVAVKTLPEVCSEQDELDFLMEALIISKFNHQNIVRCIGVSLQSLPRFILLELMAGGDLKSFLRETRPRPSQPSSLAMLDLLHVARDIACGCQYLEENHFIHRDIAARNCLLTCPGPGRVAKIGDFGMARDIYRASYYRKGGCAMLPVKWMPPEAFMEGIFTSKTDTWSFGVLLWEIFSLGYMPYPSKSNQEVLEFVTSGGRMDPPKNCPGPVYRIMTQCWQHQPEDRPNFAIILERIEYCTQDPDVINTALPIEYGPLVEEEEKVPVRPKDPEGVPPLLVSQQAKREEERSPAAPPPLPTTSSGKAAKKPTAAEISVRVPRGPAVEGGHVNMAFSQSNPPSELHKVHGSRNKPTSLWNPTYGSWFTEKPTKKNNPIAKKEPHDRGNLGLEGSCTVPPNVATGRLPGASLLLEPSSLTANMKEVPLFRLRHFPCGNVNYGYQQQGLPLEAATAPGAGHYEDTILKSKNSMNQPGP

> <PDB ID(s) of Target Chain>
2XB7,2XBA,3AOX,5FTO,5FTQ,6E0R,6EBW,6EDL,6MX8

> <UniProt (SwissProt) Recommended Name of Target Chain>
ALK tyrosine kinase receptor

> <UniProt (SwissProt) Entry Name of Target Chain>
ALK_HUMAN

> <UniProt (SwissProt) Primary ID of Target Chain>
Q9UM73

> <UniProt (SwissProt) Secondary ID(s) of Target Chain>
Q4ZFX9,Q53QQ6,Q53RZ4,Q59FI3,Q9Y4K6

> <UniProt (SwissProt) Alternative ID(s) of Target Chain>


> <UniProt (TrEMBL) Submitted Name of Target Chain>


> <UniProt (TrEMBL) Entry Name of Target Chain>


> <UniProt (TrEMBL) Primary ID of Target Chain>


> <UniProt (TrEMBL) Secondary ID(s) of Target Chain>


> <UniProt (TrEMBL) Alternative ID(s) of Target Chain>


$$$$

  SciTegic07141820172D

 37 41  0  0  0  0            999 V2000
   20.0583  -16.7111    0.0000 O   0  0
   20.4711  -17.4210    0.0000 S   0  0
   20.8795  -16.7087    0.0000 O   0  0
   19.7721  -20.2812    0.0000 C   0  0
   19.7710  -21.1007    0.0000 C   0  0
   20.4790  -21.5097    0.0000 N   0  0
   21.1887  -21.1002    0.0000 C   0  0
   21.1859  -20.2776    0.0000 N   0  0
   20.4772  -19.8723    0.0000 C   0  0
   19.0643  -19.8727    0.0000 Cl  0  0
   21.8970  -21.5077    0.0000 N   0  0
   22.6041  -21.0980    0.0000 C   0  0
   23.3091  -21.5059    0.0000 C   0  0
   24.0157  -21.0969    0.0000 C   0  0
   22.5979  -20.2829    0.0000 C   0  0
   23.3092  -22.3231    0.0000 O   0  0
   24.0170  -22.7316    0.0000 C   0  0
   20.4748  -19.0551    0.0000 N   0  0
   23.3016  -19.8715    0.0000 C   0  0
   24.0157  -20.2827    0.0000 C   0  0
   19.7659  -18.6486    0.0000 C   0  0
   19.7668  -17.8322    0.0000 C   0  0
   19.0587  -17.4258    0.0000 C   0  0
   18.3512  -17.8365    0.0000 C   0  0
   18.3563  -18.6579    0.0000 C   0  0
   19.0650  -19.0607    0.0000 C   0  0
   21.1822  -17.8311    0.0000 C   0  0
   21.8896  -17.4220    0.0000 C   0  0
   21.1828  -18.6483    0.0000 C   0  0
   23.2966  -19.0498    0.0000 C   0  0
   24.0112  -18.6430    0.0000 N   0  0
   24.7262  -19.0487    0.0000 C   0  0
   24.7237  -19.8708    0.0000 C   0  0
   25.4333  -20.2822    0.0000 C   0  0
   26.1458  -19.8726    0.0000 C   0  0
   26.1443  -19.0474    0.0000 C   0  0
   25.4341  -18.6397    0.0000 C   0  0
  2  1  2  0
  3  2  2  0
  4  5  2  0
  5  6  1  0
  6  7  2  0
  7  8  1  0
  8  9  2  0
  9  4  1  0
  4 10  1  0
  7 11  1  0
 11 12  1  0
 12 13  2  0
 13 14  1  0
 14 20  2  0
 19 15  2  0
 15 12  1  0
 13 16  1  0
 16 17  1  0
  9 18  1  0
 19 20  1  0
 19 30  1  0
 20 33  1  0
 32 31  1  0
 18 21  1  0
 21 22  2  0
 22 23  1  0
 23 24  2  0
 24 25  1  0
 25 26  2  0
 26 21  1  0
 22  2  1  0
  2 27  1  0
 27 28  1  0
 27 29  1  0
 30 31  2  0
 32 33  2  0
 33 34  1  0
 34 35  2  0
 35 36  1  0
 36 37  2  0
 37 32  1  0
M  END
> <From>
www.bindingDB.org

> <BindingDB Reactant_set_id>
50755036

> <Ligand InChI>
InChI=1S/C27H24ClN5O3S/c1-16(2)37(34,35)25-11-7-6-10-22(25)31-26-20(28)15-30-27(33-26)32-23-12-17-14-29-21-9-5-4-8-18(21)19(17)13-24(23)36-3/h4-16H,1-3H3,(H2,30,31,32,33)

> <Ligand InChI Key>
ZGLPBZFBVFCMOD-UHFFFAOYSA-N

> <BindingDB MonomerID>
50240268

> <BindingDB Ligand Name>
CHEMBL4100875

> <Target Name Assigned by Curator or DataSource>
ALK tyrosine kinase receptor

> <Target Source Organism According to Curator or DataSource>
Homo sapiens

> <Ki (nM)>


> <IC50 (nM)>
>10000

> <Kd (nM)>


> <EC50 (nM)>


> <kon (M-1-s-1)>


> <koff (s-1)>


> <pH>


> <Temp C>


> <Curation/DataSource>
ChEMBL

> <Article DOI>
10.1016/j.bmcl.2017.03.073

> <PMID>
28385505

> <PubChem AID>


> <Patent Number>


> <Authors>
Achary, R; Mathi, GR; Lee, DH; Yun, CS; Lee, CO; Kim, HR; Park, CH; Kim, P; Hwang, JY

> <Institution>
University of Science&amp; Technology

> <Link to Ligand in BindingDB>
http://www.bindingdb.org/bind/chemsearch/marvin/MolStructure.jsp?monomerid=50240268

> <Link to Ligand-Target Pair in BindingDB>
http://www.bindingdb.org/jsp/dbsearch/PrimarySearch_ki.jsp?energyterm=kJ/mole&tag=pol&polymerid=5809&target=ALK+tyrosine+kinase+receptor&column=ki&startPg=0&Increment=50&submit=Search

> <Link to Ligand-Target Pair in BindingDB>
http://www.bindingdb.org/jsp/dbsearch/PrimarySearch_ki.jsp?energyterm=kJ/mole&tag=r21&monomerid=50240268&enzyme=ALK+tyrosine+kinase+receptor&column=ki&startPg=0&Increment=50&submit=Search

> <Ligand HET ID in PDB>


> <PDB ID(s) for Ligand-Target Complex>


> <PubChem CID>
44449049

> <PubChem SID>
85715396

> <ChEBI ID of Ligand>


> <ChEMBL ID of Ligand>
CHEMBL4100875

> <DrugBank ID of Ligand>


> <IUPHAR_GRAC ID of Ligand>


> <KEGG ID of Ligand>


> <ZINC ID of Ligand>


> <Number of Protein Chains in Target (>1 implies a multichain complex)>
1

> <BindingDB Target Chain Sequence>
MGAIGLLWLLPLLLSTAAVGSGMGTGQRAGSPAAGPPLQPREPLSYSRLQRKSLAVDFVVPSLFRVYARDLLLPPSSSELKAGRPEARGSLALDCAPLLRLLGPAPGVSWTAGSPAPAEARTLSRVLKGGSVRKLRRAKQLVLELGEEAILEGCVGPPGEAAVGLLQFNLSELFSWWIRQGEGRLRIRLMPEKKASEVGREGRLSAAIRASQPRLLFQIFGTGHSSLESPTNMPSPSPDYFTWNLTWIMKDSFPFLSHRSRYGLECSFDFPCELEYSPPLHDLRNQSWSWRRIPSEEASQMDLLDGPGAERSKEMPRGSFLLLNTSADSKHTILSPWMRSSSEHCTLAVSVHRHLQPSGRYIAQLLPHNEAAREILLMPTPGKHGWTVLQGRIGRPDNPFRVALEYISSGNRSLSAVDFFALKNCSEGTSPGSKMALQSSFTCWNGTVLQLGQACDFHQDCAQGEDESQMCRKLPVGFYCNFEDGFCGWTQGTLSPHTPQWQVRTLKDARFQDHQDHALLLSTTDVPASESATVTSATFPAPIKSSPCELRMSWLIRGVLRGNVSLVLVENKTGKEQGRMVWHVAAYEGLSLWQWMVLPLLDVSDRFWLQMVAWWGQGSRAIVAFDNISISLDCYLTISGEDKILQNTAPKSRNLFERNPNKELKPGENSPRQTPIFDPTVHWLFTTCGASGPHGPTQAQCNNAYQNSNLSVEVGSEGPLKGIQIWKVPATDTYSISGYGAAGGKGGKNTMMRSHGVSVLGIFNLEKDDMLYILVGQQGEDACPSTNQLIQKVCIGENNVIEEEIRVNRSVHEWAGGGGGGGGATYVFKMKDGVPVPLIIAAGGGGRAYGAKTDTFHPERLENNSSVLGLNGNSGAAGGGGGWNDNTSLLWAGKSLQEGATGGHSCPQAMKKWGWETRGGFGGGGGGCSSGGGGGGYIGGNAASNNDPEMDGEDGVSFISPLGILYTPALKVMEGHGEVNIKHYLNCSHCEVDECHMDPESHKVICFCDHGTVLAEDGVSCIVSPTPEPHLPLSLILSVVTSALVAALVLAFSGIMIVYRRKHQELQAMQMELQSPEYKLSKLRTSTIMTDYNPNYCFAGKTSSISDLKEVPRKNITLIRGLGHGAFGEVYEGQVSGMPNDPSPLQVAVKTLPEVCSEQDELDFLMEALIISKFNHQNIVRCIGVSLQSLPRFILLELMAGGDLKSFLRETRPRPSQPSSLAMLDLLHVARDIACGCQYLEENHFIHRDIAARNCLLTCPGPGRVAKIGDFGMARDIYRASYYRKGGCAMLPVKWMPPEAFMEGIFTSKTDTWSFGVLLWEIFSLGYMPYPSKSNQEVLEFVTSGGRMDPPKNCPGPVYRIMTQCWQHQPEDRPNFAIILERIEYCTQDPDVINTALPIEYGPLVEEEEKVPVRPKDPEGVPPLLVSQQAKREEERSPAAPPPLPTTSSGKAAKKPTAAEISVRVPRGPAVEGGHVNMAFSQSNPPSELHKVHGSRNKPTSLWNPTYGSWFTEKPTKKNNPIAKKEPHDRGNLGLEGSCTVPPNVATGRLPGASLLLEPSSLTANMKEVPLFRLRHFPCGNVNYGYQQQGLPLEAATAPGAGHYEDTILKSKNSMNQPGP

> <PDB ID(s) of Target Chain>
2XB7,2XBA,3AOX,5FTO,5FTQ,6E0R,6EBW,6EDL,6MX8

> <UniProt (SwissProt) Recommended Name of Target Chain>
ALK tyrosine kinase receptor

> <UniProt (SwissProt) Entry Name of Target Chain>
ALK_HUMAN

> <UniProt (SwissProt) Primary ID of Target Chain>
Q9UM73

> <UniProt (SwissProt) Secondary ID(s) of Target Chain>
Q4ZFX9,Q53QQ6,Q53RZ4,Q59FI3,Q9Y4K6

> <UniProt (SwissProt) Alternative ID(s) of Target Chain>


> <UniProt (TrEMBL) Submitted Name of Target Chain>


> <UniProt (TrEMBL) Entry Name of Target Chain>


> <UniProt (TrEMBL) Primary ID of Target Chain>


> <UniProt (TrEMBL) Secondary ID(s) of Target Chain>


> <UniProt (TrEMBL) Alternative ID(s) of Target Chain>


$$$$

  SciTegic07121823472D

 40 44  0  0  0  0            999 V2000
    2.2451  -15.7699    0.0000 O   0  0
    2.6616  -16.4863    0.0000 S   0  0
    3.0738  -15.7674    0.0000 O   0  0
    1.9563  -19.3728    0.0000 C   0  0
    1.9551  -20.1999    0.0000 C   0  0
    2.6697  -20.6127    0.0000 N   0  0
    3.3859  -20.1995    0.0000 C   0  0
    3.3830  -19.3692    0.0000 N   0  0
    2.6679  -18.9602    0.0000 C   0  0
    1.2420  -18.9607    0.0000 Cl  0  0
    4.1008  -20.6107    0.0000 N   0  0
    4.8144  -20.1972    0.0000 C   0  0
    5.5259  -20.6089    0.0000 C   0  0
    6.2390  -20.1961    0.0000 C   0  0
    4.8081  -19.3745    0.0000 C   0  0
    5.5260  -21.4337    0.0000 O   0  0
    6.2403  -21.8459    0.0000 C   0  0
    2.6655  -18.1355    0.0000 N   0  0
    5.5183  -18.9595    0.0000 C   0  0
    6.2389  -19.3743    0.0000 C   0  0
    1.9499  -17.7253    0.0000 C   0  0
    1.9508  -16.9012    0.0000 C   0  0
    1.2362  -16.4911    0.0000 C   0  0
    0.5223  -16.9057    0.0000 C   0  0
    0.5274  -17.7347    0.0000 C   0  0
    1.2426  -18.1411    0.0000 C   0  0
    3.3793  -16.9002    0.0000 C   0  0
    4.0933  -16.4873    0.0000 C   0  0
    3.3799  -17.7250    0.0000 C   0  0
    5.5133  -18.1301    0.0000 C   0  0
    6.2345  -17.7195    0.0000 N   0  0
    6.2394  -16.8943    0.0000 O   0  0
    4.7971  -17.7154    0.0000 O   0  0
    6.9560  -18.1290    0.0000 C   0  0
    6.9535  -18.9586    0.0000 C   0  0
    7.6696  -19.3738    0.0000 C   0  0
    8.3888  -18.9606    0.0000 C   0  0
    8.3873  -18.1276    0.0000 C   0  0
    7.6705  -17.7162    0.0000 C   0  0
    6.9562  -16.4862    0.0000 C   0  0
  2  1  2  0
  3  2  2  0
  4  5  2  0
  5  6  1  0
  6  7  2  0
  7  8  1  0
  8  9  2  0
  9  4  1  0
  4 10  1  0
  7 11  1  0
 11 12  1  0
 12 13  2  0
 13 14  1  0
 14 20  2  0
 19 15  2  0
 15 12  1  0
 13 16  1  0
 16 17  1  0
  9 18  1  0
 19 20  1  0
 19 30  1  0
 20 35  1  0
 34 31  1  0
 18 21  1  0
 21 22  2  0
 22 23  1  0
 23 24  2  0
 24 25  1  0
 25 26  2  0
 26 21  1  0
 22  2  1  0
  2 27  1  0
 27 28  1  0
 27 29  1  0
 30 31  1  0
 30 33  2  0
 31 32  1  0
 34 35  2  0
 35 36  1  0
 36 37  2  0
 37 38  1  0
 38 39  2  0
 39 34  1  0
 32 40  1  0
M  END
> <From>
www.bindingDB.org

> <BindingDB Reactant_set_id>
50755039

> <Ligand InChI>
InChI=1S/C28H26ClN5O5S/c1-16(2)40(36,37)25-12-8-6-10-21(25)31-26-20(29)15-30-28(33-26)32-22-13-19-18(14-24(22)38-3)17-9-5-7-11-23(17)34(39-4)27(19)35/h5-16H,1-4H3,(H2,30,31,32,33)

> <Ligand InChI Key>
YRWVTRIPDNRHAC-UHFFFAOYSA-N

> <BindingDB MonomerID>
50240269

> <BindingDB Ligand Name>
CHEMBL4062738

> <Target Name Assigned by Curator or DataSource>
ALK tyrosine kinase receptor

> <Target Source Organism According to Curator or DataSource>
Homo sapiens

> <Ki (nM)>


> <IC50 (nM)>
 190

> <Kd (nM)>


> <EC50 (nM)>


> <kon (M-1-s-1)>


> <koff (s-1)>


> <pH>


> <Temp C>


> <Curation/DataSource>
ChEMBL

> <Article DOI>
10.1016/j.bmcl.2017.03.073

> <PMID>
28385505

> <PubChem AID>


> <Patent Number>


> <Authors>
Achary, R; Mathi, GR; Lee, DH; Yun, CS; Lee, CO; Kim, HR; Park, CH; Kim, P; Hwang, JY

> <Institution>
University of Science&amp; Technology

> <Link to Ligand in BindingDB>
http://www.bindingdb.org/bind/chemsearch/marvin/MolStructure.jsp?monomerid=50240269

> <Link to Ligand-Target Pair in BindingDB>
http://www.bindingdb.org/jsp/dbsearch/PrimarySearch_ki.jsp?energyterm=kJ/mole&tag=pol&polymerid=5809&target=ALK+tyrosine+kinase+receptor&column=ki&startPg=0&Increment=50&submit=Search

> <Link to Ligand-Target Pair in BindingDB>
http://www.bindingdb.org/jsp/dbsearch/PrimarySearch_ki.jsp?energyterm=kJ/mole&tag=r21&monomerid=50240269&enzyme=ALK+tyrosine+kinase+receptor&column=ki&startPg=0&Increment=50&submit=Search

> <Ligand HET ID in PDB>


> <PDB ID(s) for Ligand-Target Complex>


> <PubChem CID>
44449074

> <PubChem SID>
85715440

> <ChEBI ID of Ligand>


> <ChEMBL ID of Ligand>
CHEMBL4062738

> <DrugBank ID of Ligand>


> <IUPHAR_GRAC ID of Ligand>


> <KEGG ID of Ligand>


> <ZINC ID of Ligand>


> <Number of Protein Chains in Target (>1 implies a multichain complex)>
1

> <BindingDB Target Chain Sequence>
MGAIGLLWLLPLLLSTAAVGSGMGTGQRAGSPAAGPPLQPREPLSYSRLQRKSLAVDFVVPSLFRVYARDLLLPPSSSELKAGRPEARGSLALDCAPLLRLLGPAPGVSWTAGSPAPAEARTLSRVLKGGSVRKLRRAKQLVLELGEEAILEGCVGPPGEAAVGLLQFNLSELFSWWIRQGEGRLRIRLMPEKKASEVGREGRLSAAIRASQPRLLFQIFGTGHSSLESPTNMPSPSPDYFTWNLTWIMKDSFPFLSHRSRYGLECSFDFPCELEYSPPLHDLRNQSWSWRRIPSEEASQMDLLDGPGAERSKEMPRGSFLLLNTSADSKHTILSPWMRSSSEHCTLAVSVHRHLQPSGRYIAQLLPHNEAAREILLMPTPGKHGWTVLQGRIGRPDNPFRVALEYISSGNRSLSAVDFFALKNCSEGTSPGSKMALQSSFTCWNGTVLQLGQACDFHQDCAQGEDESQMCRKLPVGFYCNFEDGFCGWTQGTLSPHTPQWQVRTLKDARFQDHQDHALLLSTTDVPASESATVTSATFPAPIKSSPCELRMSWLIRGVLRGNVSLVLVENKTGKEQGRMVWHVAAYEGLSLWQWMVLPLLDVSDRFWLQMVAWWGQGSRAIVAFDNISISLDCYLTISGEDKILQNTAPKSRNLFERNPNKELKPGENSPRQTPIFDPTVHWLFTTCGASGPHGPTQAQCNNAYQNSNLSVEVGSEGPLKGIQIWKVPATDTYSISGYGAAGGKGGKNTMMRSHGVSVLGIFNLEKDDMLYILVGQQGEDACPSTNQLIQKVCIGENNVIEEEIRVNRSVHEWAGGGGGGGGATYVFKMKDGVPVPLIIAAGGGGRAYGAKTDTFHPERLENNSSVLGLNGNSGAAGGGGGWNDNTSLLWAGKSLQEGATGGHSCPQAMKKWGWETRGGFGGGGGGCSSGGGGGGYIGGNAASNNDPEMDGEDGVSFISPLGILYTPALKVMEGHGEVNIKHYLNCSHCEVDECHMDPESHKVICFCDHGTVLAEDGVSCIVSPTPEPHLPLSLILSVVTSALVAALVLAFSGIMIVYRRKHQELQAMQMELQSPEYKLSKLRTSTIMTDYNPNYCFAGKTSSISDLKEVPRKNITLIRGLGHGAFGEVYEGQVSGMPNDPSPLQVAVKTLPEVCSEQDELDFLMEALIISKFNHQNIVRCIGVSLQSLPRFILLELMAGGDLKSFLRETRPRPSQPSSLAMLDLLHVARDIACGCQYLEENHFIHRDIAARNCLLTCPGPGRVAKIGDFGMARDIYRASYYRKGGCAMLPVKWMPPEAFMEGIFTSKTDTWSFGVLLWEIFSLGYMPYPSKSNQEVLEFVTSGGRMDPPKNCPGPVYRIMTQCWQHQPEDRPNFAIILERIEYCTQDPDVINTALPIEYGPLVEEEEKVPVRPKDPEGVPPLLVSQQAKREEERSPAAPPPLPTTSSGKAAKKPTAAEISVRVPRGPAVEGGHVNMAFSQSNPPSELHKVHGSRNKPTSLWNPTYGSWFTEKPTKKNNPIAKKEPHDRGNLGLEGSCTVPPNVATGRLPGASLLLEPSSLTANMKEVPLFRLRHFPCGNVNYGYQQQGLPLEAATAPGAGHYEDTILKSKNSMNQPGP

> <PDB ID(s) of Target Chain>
2XB7,2XBA,3AOX,5FTO,5FTQ,6E0R,6EBW,6EDL,6MX8

> <UniProt (SwissProt) Recommended Name of Target Chain>
ALK tyrosine kinase receptor

> <UniProt (SwissProt) Entry Name of Target Chain>
ALK_HUMAN

> <UniProt (SwissProt) Primary ID of Target Chain>
Q9UM73

> <UniProt (SwissProt) Secondary ID(s) of Target Chain>
Q4ZFX9,Q53QQ6,Q53RZ4,Q59FI3,Q9Y4K6

> <UniProt (SwissProt) Alternative ID(s) of Target Chain>


> <UniProt (TrEMBL) Submitted Name of Target Chain>


> <UniProt (TrEMBL) Entry Name of Target Chain>


> <UniProt (TrEMBL) Primary ID of Target Chain>


> <UniProt (TrEMBL) Secondary ID(s) of Target Chain>


> <UniProt (TrEMBL) Alternative ID(s) of Target Chain>


$$$$

  SciTegic07141818512D

 38 42  0  0  0  0            999 V2000
    1.6798   -9.6371    0.0000 O   0  0
    2.0925   -8.9313    0.0000 S   0  0
    1.2749   -8.9268    0.0000 O   0  0
    1.4018  -11.7873    0.0000 C   0  0
    1.4007  -12.6069    0.0000 C   0  0
    2.1087  -13.0158    0.0000 N   0  0
    2.8184  -12.6064    0.0000 C   0  0
    2.8156  -11.7837    0.0000 N   0  0
    2.1070  -11.3785    0.0000 C   0  0
    0.6940  -11.3789    0.0000 Cl  0  0
    3.5268  -13.0139    0.0000 N   0  0
    4.2338  -12.6042    0.0000 C   0  0
    4.9388  -13.0121    0.0000 C   0  0
    5.6454  -12.6031    0.0000 C   0  0
    4.2276  -11.7891    0.0000 C   0  0
    4.9389  -13.8293    0.0000 O   0  0
    5.6467  -14.2378    0.0000 C   0  0
    7.0543  -11.7842    0.0000 C   0  0
    7.7587  -11.3771    0.0000 C   0  0
    7.7606  -10.5595    0.0000 N   0  0
    7.0519  -10.1508    0.0000 N   0  0
    2.1045  -10.5613    0.0000 N   0  0
    2.8110  -10.1506    0.0000 C   0  0
    3.5178  -10.5594    0.0000 C   0  0
    4.2238  -10.1494    0.0000 C   0  0
    4.2218   -9.3313    0.0000 C   0  0
    3.5079   -8.9250    0.0000 C   0  0
    2.8048   -9.3374    0.0000 C   0  0
    2.0883   -8.1167    0.0000 C   0  0
    1.3777   -7.7133    0.0000 C   0  0
    2.7931   -7.7031    0.0000 C   0  0
    4.9313  -11.3777    0.0000 C   0  0
    5.6454  -11.7888    0.0000 C   0  0
    6.3546  -11.3783    0.0000 N   0  0
    6.3559  -10.5548    0.0000 C   0  0
    5.6417  -10.1437    0.0000 C   0  0
    4.9263  -10.5559    0.0000 C   0  0
    8.4687  -10.1515    0.0000 C   0  0
  2  1  2  0
  3  2  2  0
  4  5  2  0
  5  6  1  0
  6  7  2  0
  7  8  1  0
  8  9  2  0
  9  4  1  0
  4 10  1  0
  7 11  1  0
 11 12  1  0
 12 13  2  0
 13 14  1  0
 14 33  2  0
 32 15  2  0
 15 12  1  0
 13 16  1  0
 16 17  1  0
 34 18  1  0
 18 19  1  0
 19 20  1  0
 20 21  1  0
 21 35  2  0
  9 22  1  0
 22 23  1  0
 23 24  2  0
 24 25  1  0
 25 26  2  0
 26 27  1  0
 27 28  2  0
 28 23  1  0
 28  2  1  0
  2 29  1  0
 29 30  1  0
 29 31  1  0
 32 33  1  0
 32 37  1  0
 33 34  1  0
 34 35  1  0
 35 36  1  0
 36 37  1  0
 20 38  1  0
M  END
> <From>
www.bindingDB.org

> <BindingDB Reactant_set_id>
50755045

> <Ligand InChI>
InChI=1S/C26H30ClN7O3S/c1-16(2)38(35,36)23-8-6-5-7-19(23)29-25-18(27)15-28-26(31-25)30-20-13-17-9-10-24-32-33(3)11-12-34(24)21(17)14-22(20)37-4/h5-8,13-16H,9-12H2,1-4H3,(H2,28,29,30,31)

> <Ligand InChI Key>
CKZWESXBMQBAAD-UHFFFAOYSA-N

> <BindingDB MonomerID>
50240270

> <BindingDB Ligand Name>
CHEMBL4099922

> <Target Name Assigned by Curator or DataSource>
ALK tyrosine kinase receptor

> <Target Source Organism According to Curator or DataSource>
Homo sapiens

> <Ki (nM)>


> <IC50 (nM)>
 1.7

> <Kd (nM)>


> <EC50 (nM)>


> <kon (M-1-s-1)>


> <koff (s-1)>


> <pH>


> <Temp C>


> <Curation/DataSource>
ChEMBL

> <Article DOI>
10.1016/j.bmcl.2017.03.073

> <PMID>
28385505

> <PubChem AID>


> <Patent Number>


> <Authors>
Achary, R; Mathi, GR; Lee, DH; Yun, CS; Lee, CO; Kim, HR; Park, CH; Kim, P; Hwang, JY

> <Institution>
University of Science&amp; Technology

> <Link to Ligand in BindingDB>
http://www.bindingdb.org/bind/chemsearch/marvin/MolStructure.jsp?monomerid=50240270

> <Link to Ligand-Target Pair in BindingDB>
http://www.bindingdb.org/jsp/dbsearch/PrimarySearch_ki.jsp?energyterm=kJ/mole&tag=pol&polymerid=5809&target=ALK+tyrosine+kinase+receptor&column=ki&startPg=0&Increment=50&submit=Search

> <Link to Ligand-Target Pair in BindingDB>
http://www.bindingdb.org/jsp/dbsearch/PrimarySearch_ki.jsp?energyterm=kJ/mole&tag=r21&monomerid=50240270&enzyme=ALK+tyrosine+kinase+receptor&column=ki&startPg=0&Increment=50&submit=Search

> <Ligand HET ID in PDB>


> <PDB ID(s) for Ligand-Target Complex>


> <PubChem CID>
44449076

> <PubChem SID>
85715443

> <ChEBI ID of Ligand>


> <ChEMBL ID of Ligand>
CHEMBL4099922

> <DrugBank ID of Ligand>


> <IUPHAR_GRAC ID of Ligand>


> <KEGG ID of Ligand>


> <ZINC ID of Ligand>


> <Number of Protein Chains in Target (>1 implies a multichain complex)>
1

> <BindingDB Target Chain Sequence>
MGAIGLLWLLPLLLSTAAVGSGMGTGQRAGSPAAGPPLQPREPLSYSRLQRKSLAVDFVVPSLFRVYARDLLLPPSSSELKAGRPEARGSLALDCAPLLRLLGPAPGVSWTAGSPAPAEARTLSRVLKGGSVRKLRRAKQLVLELGEEAILEGCVGPPGEAAVGLLQFNLSELFSWWIRQGEGRLRIRLMPEKKASEVGREGRLSAAIRASQPRLLFQIFGTGHSSLESPTNMPSPSPDYFTWNLTWIMKDSFPFLSHRSRYGLECSFDFPCELEYSPPLHDLRNQSWSWRRIPSEEASQMDLLDGPGAERSKEMPRGSFLLLNTSADSKHTILSPWMRSSSEHCTLAVSVHRHLQPSGRYIAQLLPHNEAAREILLMPTPGKHGWTVLQGRIGRPDNPFRVALEYISSGNRSLSAVDFFALKNCSEGTSPGSKMALQSSFTCWNGTVLQLGQACDFHQDCAQGEDESQMCRKLPVGFYCNFEDGFCGWTQGTLSPHTPQWQVRTLKDARFQDHQDHALLLSTTDVPASESATVTSATFPAPIKSSPCELRMSWLIRGVLRGNVSLVLVENKTGKEQGRMVWHVAAYEGLSLWQWMVLPLLDVSDRFWLQMVAWWGQGSRAIVAFDNISISLDCYLTISGEDKILQNTAPKSRNLFERNPNKELKPGENSPRQTPIFDPTVHWLFTTCGASGPHGPTQAQCNNAYQNSNLSVEVGSEGPLKGIQIWKVPATDTYSISGYGAAGGKGGKNTMMRSHGVSVLGIFNLEKDDMLYILVGQQGEDACPSTNQLIQKVCIGENNVIEEEIRVNRSVHEWAGGGGGGGGATYVFKMKDGVPVPLIIAAGGGGRAYGAKTDTFHPERLENNSSVLGLNGNSGAAGGGGGWNDNTSLLWAGKSLQEGATGGHSCPQAMKKWGWETRGGFGGGGGGCSSGGGGGGYIGGNAASNNDPEMDGEDGVSFISPLGILYTPALKVMEGHGEVNIKHYLNCSHCEVDECHMDPESHKVICFCDHGTVLAEDGVSCIVSPTPEPHLPLSLILSVVTSALVAALVLAFSGIMIVYRRKHQELQAMQMELQSPEYKLSKLRTSTIMTDYNPNYCFAGKTSSISDLKEVPRKNITLIRGLGHGAFGEVYEGQVSGMPNDPSPLQVAVKTLPEVCSEQDELDFLMEALIISKFNHQNIVRCIGVSLQSLPRFILLELMAGGDLKSFLRETRPRPSQPSSLAMLDLLHVARDIACGCQYLEENHFIHRDIAARNCLLTCPGPGRVAKIGDFGMARDIYRASYYRKGGCAMLPVKWMPPEAFMEGIFTSKTDTWSFGVLLWEIFSLGYMPYPSKSNQEVLEFVTSGGRMDPPKNCPGPVYRIMTQCWQHQPEDRPNFAIILERIEYCTQDPDVINTALPIEYGPLVEEEEKVPVRPKDPEGVPPLLVSQQAKREEERSPAAPPPLPTTSSGKAAKKPTAAEISVRVPRGPAVEGGHVNMAFSQSNPPSELHKVHGSRNKPTSLWNPTYGSWFTEKPTKKNNPIAKKEPHDRGNLGLEGSCTVPPNVATGRLPGASLLLEPSSLTANMKEVPLFRLRHFPCGNVNYGYQQQGLPLEAATAPGAGHYEDTILKSKNSMNQPGP

> <PDB ID(s) of Target Chain>
2XB7,2XBA,3AOX,5FTO,5FTQ,6E0R,6EBW,6EDL,6MX8

> <UniProt (SwissProt) Recommended Name of Target Chain>
ALK tyrosine kinase receptor

> <UniProt (SwissProt) Entry Name of Target Chain>
ALK_HUMAN

> <UniProt (SwissProt) Primary ID of Target Chain>
Q9UM73

> <UniProt (SwissProt) Secondary ID(s) of Target Chain>
Q4ZFX9,Q53QQ6,Q53RZ4,Q59FI3,Q9Y4K6

> <UniProt (SwissProt) Alternative ID(s) of Target Chain>


> <UniProt (TrEMBL) Submitted Name of Target Chain>


> <UniProt (TrEMBL) Entry Name of Target Chain>


> <UniProt (TrEMBL) Primary ID of Target Chain>


> <UniProt (TrEMBL) Secondary ID(s) of Target Chain>


> <UniProt (TrEMBL) Alternative ID(s) of Target Chain>


$$$$

  SciTegic07141821182D

 37 41  0  0  0  0            999 V2000
   39.1220   -2.6290    0.0000 O   0  0
   39.5347   -1.9233    0.0000 S   0  0
   38.7172   -1.9187    0.0000 O   0  0
   38.8441   -4.7793    0.0000 C   0  0
   38.8429   -5.5988    0.0000 C   0  0
   39.5510   -6.0078    0.0000 N   0  0
   40.2606   -5.5984    0.0000 C   0  0
   40.2578   -4.7757    0.0000 N   0  0
   39.5492   -4.3704    0.0000 C   0  0
   38.1362   -4.3709    0.0000 Cl  0  0
   40.9690   -6.0058    0.0000 N   0  0
   41.6760   -5.5961    0.0000 C   0  0
   42.3811   -6.0041    0.0000 C   0  0
   43.0876   -5.5950    0.0000 C   0  0
   41.6698   -4.7810    0.0000 C   0  0
   42.3811   -6.8212    0.0000 O   0  0
   43.0889   -7.2298    0.0000 C   0  0
   44.4965   -4.7762    0.0000 C   0  0
   45.2010   -4.3690    0.0000 C   0  0
   45.2028   -3.5515    0.0000 N   0  0
   44.4941   -3.1428    0.0000 N   0  0
   39.5467   -3.5532    0.0000 N   0  0
   40.2532   -3.1425    0.0000 C   0  0
   40.9600   -3.5514    0.0000 C   0  0
   41.6660   -3.1414    0.0000 C   0  0
   41.6640   -2.3233    0.0000 C   0  0
   40.9501   -1.9170    0.0000 C   0  0
   40.2471   -2.3294    0.0000 C   0  0
   39.5305   -1.1087    0.0000 C   0  0
   38.8199   -0.7052    0.0000 C   0  0
   40.2353   -0.6950    0.0000 C   0  0
   42.3735   -4.3697    0.0000 C   0  0
   43.0876   -4.7808    0.0000 C   0  0
   43.7968   -4.3702    0.0000 N   0  0
   43.7981   -3.5468    0.0000 C   0  0
   43.0840   -3.1356    0.0000 C   0  0
   42.3685   -3.5479    0.0000 C   0  0
  2  1  2  0
  3  2  2  0
  4  5  2  0
  5  6  1  0
  6  7  2  0
  7  8  1  0
  8  9  2  0
  9  4  1  0
  4 10  1  0
  7 11  1  0
 11 12  1  0
 12 13  2  0
 13 14  1  0
 14 33  2  0
 32 15  2  0
 15 12  1  0
 13 16  1  0
 16 17  1  0
 34 18  1  0
 18 19  1  0
 19 20  1  0
 20 21  1  0
 21 35  2  0
  9 22  1  0
 22 23  1  0
 23 24  2  0
 24 25  1  0
 25 26  2  0
 26 27  1  0
 27 28  2  0
 28 23  1  0
 28  2  1  0
  2 29  1  0
 29 30  1  0
 29 31  1  0
 32 33  1  0
 32 37  1  0
 33 34  1  0
 34 35  1  0
 35 36  1  0
 36 37  1  0
M  END
> <From>
www.bindingDB.org

> <BindingDB Reactant_set_id>
50755048

> <Ligand InChI>
InChI=1S/C25H28ClN7O3S/c1-15(2)37(34,35)22-7-5-4-6-18(22)29-24-17(26)14-27-25(31-24)30-19-12-16-8-9-23-32-28-10-11-33(23)20(16)13-21(19)36-3/h4-7,12-15,28H,8-11H2,1-3H3,(H2,27,29,30,31)

> <Ligand InChI Key>
QVMUQQQYQHYSBY-UHFFFAOYSA-N

> <BindingDB MonomerID>
50240271

> <BindingDB Ligand Name>
CHEMBL4101954

> <Target Name Assigned by Curator or DataSource>
ALK tyrosine kinase receptor

> <Target Source Organism According to Curator or DataSource>
Homo sapiens

> <Ki (nM)>


> <IC50 (nM)>
 0.330000

> <Kd (nM)>


> <EC50 (nM)>


> <kon (M-1-s-1)>


> <koff (s-1)>


> <pH>


> <Temp C>


> <Curation/DataSource>
ChEMBL

> <Article DOI>
10.1016/j.bmcl.2017.03.073

> <PMID>
28385505

> <PubChem AID>


> <Patent Number>


> <Authors>
Achary, R; Mathi, GR; Lee, DH; Yun, CS; Lee, CO; Kim, HR; Park, CH; Kim, P; Hwang, JY

> <Institution>
University of Science&amp; Technology

> <Link to Ligand in BindingDB>
http://www.bindingdb.org/bind/chemsearch/marvin/MolStructure.jsp?monomerid=50240271

> <Link to Ligand-Target Pair in BindingDB>
http://www.bindingdb.org/jsp/dbsearch/PrimarySearch_ki.jsp?energyterm=kJ/mole&tag=pol&polymerid=5809&target=ALK+tyrosine+kinase+receptor&column=ki&startPg=0&Increment=50&submit=Search

> <Link to Ligand-Target Pair in BindingDB>
http://www.bindingdb.org/jsp/dbsearch/PrimarySearch_ki.jsp?energyterm=kJ/mole&tag=r21&monomerid=50240271&enzyme=ALK+tyrosine+kinase+receptor&column=ki&startPg=0&Increment=50&submit=Search

> <Ligand HET ID in PDB>


> <PDB ID(s) for Ligand-Target Complex>


> <PubChem CID>
44449101

> <PubChem SID>
85715490

> <ChEBI ID of Ligand>


> <ChEMBL ID of Ligand>
CHEMBL4101954

> <DrugBank ID of Ligand>


> <IUPHAR_GRAC ID of Ligand>


> <KEGG ID of Ligand>


> <ZINC ID of Ligand>


> <Number of Protein Chains in Target (>1 implies a multichain complex)>
1

> <BindingDB Target Chain Sequence>
MGAIGLLWLLPLLLSTAAVGSGMGTGQRAGSPAAGPPLQPREPLSYSRLQRKSLAVDFVVPSLFRVYARDLLLPPSSSELKAGRPEARGSLALDCAPLLRLLGPAPGVSWTAGSPAPAEARTLSRVLKGGSVRKLRRAKQLVLELGEEAILEGCVGPPGEAAVGLLQFNLSELFSWWIRQGEGRLRIRLMPEKKASEVGREGRLSAAIRASQPRLLFQIFGTGHSSLESPTNMPSPSPDYFTWNLTWIMKDSFPFLSHRSRYGLECSFDFPCELEYSPPLHDLRNQSWSWRRIPSEEASQMDLLDGPGAERSKEMPRGSFLLLNTSADSKHTILSPWMRSSSEHCTLAVSVHRHLQPSGRYIAQLLPHNEAAREILLMPTPGKHGWTVLQGRIGRPDNPFRVALEYISSGNRSLSAVDFFALKNCSEGTSPGSKMALQSSFTCWNGTVLQLGQACDFHQDCAQGEDESQMCRKLPVGFYCNFEDGFCGWTQGTLSPHTPQWQVRTLKDARFQDHQDHALLLSTTDVPASESATVTSATFPAPIKSSPCELRMSWLIRGVLRGNVSLVLVENKTGKEQGRMVWHVAAYEGLSLWQWMVLPLLDVSDRFWLQMVAWWGQGSRAIVAFDNISISLDCYLTISGEDKILQNTAPKSRNLFERNPNKELKPGENSPRQTPIFDPTVHWLFTTCGASGPHGPTQAQCNNAYQNSNLSVEVGSEGPLKGIQIWKVPATDTYSISGYGAAGGKGGKNTMMRSHGVSVLGIFNLEKDDMLYILVGQQGEDACPSTNQLIQKVCIGENNVIEEEIRVNRSVHEWAGGGGGGGGATYVFKMKDGVPVPLIIAAGGGGRAYGAKTDTFHPERLENNSSVLGLNGNSGAAGGGGGWNDNTSLLWAGKSLQEGATGGHSCPQAMKKWGWETRGGFGGGGGGCSSGGGGGGYIGGNAASNNDPEMDGEDGVSFISPLGILYTPALKVMEGHGEVNIKHYLNCSHCEVDECHMDPESHKVICFCDHGTVLAEDGVSCIVSPTPEPHLPLSLILSVVTSALVAALVLAFSGIMIVYRRKHQELQAMQMELQSPEYKLSKLRTSTIMTDYNPNYCFAGKTSSISDLKEVPRKNITLIRGLGHGAFGEVYEGQVSGMPNDPSPLQVAVKTLPEVCSEQDELDFLMEALIISKFNHQNIVRCIGVSLQSLPRFILLELMAGGDLKSFLRETRPRPSQPSSLAMLDLLHVARDIACGCQYLEENHFIHRDIAARNCLLTCPGPGRVAKIGDFGMARDIYRASYYRKGGCAMLPVKWMPPEAFMEGIFTSKTDTWSFGVLLWEIFSLGYMPYPSKSNQEVLEFVTSGGRMDPPKNCPGPVYRIMTQCWQHQPEDRPNFAIILERIEYCTQDPDVINTALPIEYGPLVEEEEKVPVRPKDPEGVPPLLVSQQAKREEERSPAAPPPLPTTSSGKAAKKPTAAEISVRVPRGPAVEGGHVNMAFSQSNPPSELHKVHGSRNKPTSLWNPTYGSWFTEKPTKKNNPIAKKEPHDRGNLGLEGSCTVPPNVATGRLPGASLLLEPSSLTANMKEVPLFRLRHFPCGNVNYGYQQQGLPLEAATAPGAGHYEDTILKSKNSMNQPGP

> <PDB ID(s) of Target Chain>
2XB7,2XBA,3AOX,5FTO,5FTQ,6E0R,6EBW,6EDL,6MX8

> <UniProt (SwissProt) Recommended Name of Target Chain>
ALK tyrosine kinase receptor

> <UniProt (SwissProt) Entry Name of Target Chain>
ALK_HUMAN

> <UniProt (SwissProt) Primary ID of Target Chain>
Q9UM73

> <UniProt (SwissProt) Secondary ID(s) of Target Chain>
Q4ZFX9,Q53QQ6,Q53RZ4,Q59FI3,Q9Y4K6

> <UniProt (SwissProt) Alternative ID(s) of Target Chain>


> <UniProt (TrEMBL) Submitted Name of Target Chain>


> <UniProt (TrEMBL) Entry Name of Target Chain>


> <UniProt (TrEMBL) Primary ID of Target Chain>


> <UniProt (TrEMBL) Secondary ID(s) of Target Chain>


> <UniProt (TrEMBL) Alternative ID(s) of Target Chain>


$$$$

  SciTegic07141803342D

 37 41  0  0  0  0            999 V2000
   21.2300  -10.5421    0.0000 O   0  0
   21.6467   -9.8295    0.0000 S   0  0
   20.8213   -9.8250    0.0000 O   0  0
   20.9494  -12.7129    0.0000 C   0  0
   20.9482  -13.5404    0.0000 C   0  0
   21.6631  -13.9532    0.0000 N   0  0
   22.3795  -13.5399    0.0000 C   0  0
   22.3767  -12.7093    0.0000 N   0  0
   21.6613  -12.3002    0.0000 C   0  0
   20.2348  -12.3006    0.0000 Cl  0  0
   23.0947  -13.9513    0.0000 N   0  0
   23.8086  -13.5377    0.0000 C   0  0
   24.5203  -13.9495    0.0000 C   0  0
   25.2337  -13.5365    0.0000 C   0  0
   23.8022  -12.7147    0.0000 C   0  0
   24.5204  -14.7745    0.0000 O   0  0
   25.2349  -15.1869    0.0000 C   0  0
   26.6561  -12.7098    0.0000 C   0  0
   27.3673  -12.2988    0.0000 N   0  0
   27.3691  -11.4733    0.0000 C   0  0
   26.6536  -11.0607    0.0000 C   0  0
   21.6588  -11.4752    0.0000 N   0  0
   22.3720  -11.0605    0.0000 C   0  0
   23.0857  -11.4732    0.0000 C   0  0
   23.7985  -11.0593    0.0000 C   0  0
   23.7965  -10.2335    0.0000 C   0  0
   23.0757   -9.8232    0.0000 C   0  0
   22.3659  -10.2395    0.0000 C   0  0
   21.6425   -9.0072    0.0000 C   0  0
   20.9250   -8.5998    0.0000 C   0  0
   22.3539   -8.5895    0.0000 C   0  0
   24.5127  -12.2994    0.0000 C   0  0
   25.2336  -12.7145    0.0000 C   0  0
   25.9496  -12.3000    0.0000 C   0  0
   25.9509  -11.4686    0.0000 N   0  0
   25.2300  -11.0535    0.0000 C   0  0
   24.5077  -11.4697    0.0000 C   0  0
  2  1  2  0
  3  2  2  0
  4  5  2  0
  5  6  1  0
  6  7  2  0
  7  8  1  0
  8  9  2  0
  9  4  1  0
  4 10  1  0
  7 11  1  0
 11 12  1  0
 12 13  2  0
 13 14  1  0
 14 33  2  0
 32 15  2  0
 15 12  1  0
 13 16  1  0
 16 17  1  0
 34 18  1  0
 18 19  1  0
 19 20  1  0
 20 21  1  0
 21 35  1  0
  9 22  1  0
 22 23  1  0
 23 24  2  0
 24 25  1  0
 25 26  2  0
 26 27  1  0
 27 28  2  0
 28 23  1  0
 28  2  1  0
  2 29  1  0
 29 30  1  0
 29 31  1  0
 32 33  1  0
 32 37  1  0
 33 34  1  0
 34 35  1  0
 35 36  1  0
 36 37  1  0
M  END
> <From>
www.bindingDB.org

> <BindingDB Reactant_set_id>
50755102

> <Ligand InChI>
InChI=1S/C26H31ClN6O3S/c1-16(2)37(34,35)24-7-5-4-6-20(24)30-25-19(27)14-29-26(32-25)31-21-12-17-8-10-33-11-9-28-15-22(33)18(17)13-23(21)36-3/h4-7,12-14,16,22,28H,8-11,15H2,1-3H3,(H2,29,30,31,32)

> <Ligand InChI Key>
BSZHBKNJHFKROD-UHFFFAOYSA-N

> <BindingDB MonomerID>
50240274

> <BindingDB Ligand Name>
CHEMBL4092174

> <Target Name Assigned by Curator or DataSource>
ALK tyrosine kinase receptor

> <Target Source Organism According to Curator or DataSource>
Homo sapiens

> <Ki (nM)>


> <IC50 (nM)>
 2.0

> <Kd (nM)>


> <EC50 (nM)>


> <kon (M-1-s-1)>


> <koff (s-1)>


> <pH>


> <Temp C>


> <Curation/DataSource>
ChEMBL

> <Article DOI>
10.1016/j.bmcl.2017.03.073

> <PMID>
28385505

> <PubChem AID>


> <Patent Number>


> <Authors>
Achary, R; Mathi, GR; Lee, DH; Yun, CS; Lee, CO; Kim, HR; Park, CH; Kim, P; Hwang, JY

> <Institution>
University of Science&amp; Technology

> <Link to Ligand in BindingDB>
http://www.bindingdb.org/bind/chemsearch/marvin/MolStructure.jsp?monomerid=50240274

> <Link to Ligand-Target Pair in BindingDB>
http://www.bindingdb.org/jsp/dbsearch/PrimarySearch_ki.jsp?energyterm=kJ/mole&tag=pol&polymerid=5809&target=ALK+tyrosine+kinase+receptor&column=ki&startPg=0&Increment=50&submit=Search

> <Link to Ligand-Target Pair in BindingDB>
http://www.bindingdb.org/jsp/dbsearch/PrimarySearch_ki.jsp?energyterm=kJ/mole&tag=r21&monomerid=50240274&enzyme=ALK+tyrosine+kinase+receptor&column=ki&startPg=0&Increment=50&submit=Search

> <Ligand HET ID in PDB>


> <PDB ID(s) for Ligand-Target Complex>


> <PubChem CID>
44449161

> <PubChem SID>
85715578

> <ChEBI ID of Ligand>


> <ChEMBL ID of Ligand>
CHEMBL4092174

> <DrugBank ID of Ligand>


> <IUPHAR_GRAC ID of Ligand>


> <KEGG ID of Ligand>


> <ZINC ID of Ligand>


> <Number of Protein Chains in Target (>1 implies a multichain complex)>
1

> <BindingDB Target Chain Sequence>
MGAIGLLWLLPLLLSTAAVGSGMGTGQRAGSPAAGPPLQPREPLSYSRLQRKSLAVDFVVPSLFRVYARDLLLPPSSSELKAGRPEARGSLALDCAPLLRLLGPAPGVSWTAGSPAPAEARTLSRVLKGGSVRKLRRAKQLVLELGEEAILEGCVGPPGEAAVGLLQFNLSELFSWWIRQGEGRLRIRLMPEKKASEVGREGRLSAAIRASQPRLLFQIFGTGHSSLESPTNMPSPSPDYFTWNLTWIMKDSFPFLSHRSRYGLECSFDFPCELEYSPPLHDLRNQSWSWRRIPSEEASQMDLLDGPGAERSKEMPRGSFLLLNTSADSKHTILSPWMRSSSEHCTLAVSVHRHLQPSGRYIAQLLPHNEAAREILLMPTPGKHGWTVLQGRIGRPDNPFRVALEYISSGNRSLSAVDFFALKNCSEGTSPGSKMALQSSFTCWNGTVLQLGQACDFHQDCAQGEDESQMCRKLPVGFYCNFEDGFCGWTQGTLSPHTPQWQVRTLKDARFQDHQDHALLLSTTDVPASESATVTSATFPAPIKSSPCELRMSWLIRGVLRGNVSLVLVENKTGKEQGRMVWHVAAYEGLSLWQWMVLPLLDVSDRFWLQMVAWWGQGSRAIVAFDNISISLDCYLTISGEDKILQNTAPKSRNLFERNPNKELKPGENSPRQTPIFDPTVHWLFTTCGASGPHGPTQAQCNNAYQNSNLSVEVGSEGPLKGIQIWKVPATDTYSISGYGAAGGKGGKNTMMRSHGVSVLGIFNLEKDDMLYILVGQQGEDACPSTNQLIQKVCIGENNVIEEEIRVNRSVHEWAGGGGGGGGATYVFKMKDGVPVPLIIAAGGGGRAYGAKTDTFHPERLENNSSVLGLNGNSGAAGGGGGWNDNTSLLWAGKSLQEGATGGHSCPQAMKKWGWETRGGFGGGGGGCSSGGGGGGYIGGNAASNNDPEMDGEDGVSFISPLGILYTPALKVMEGHGEVNIKHYLNCSHCEVDECHMDPESHKVICFCDHGTVLAEDGVSCIVSPTPEPHLPLSLILSVVTSALVAALVLAFSGIMIVYRRKHQELQAMQMELQSPEYKLSKLRTSTIMTDYNPNYCFAGKTSSISDLKEVPRKNITLIRGLGHGAFGEVYEGQVSGMPNDPSPLQVAVKTLPEVCSEQDELDFLMEALIISKFNHQNIVRCIGVSLQSLPRFILLELMAGGDLKSFLRETRPRPSQPSSLAMLDLLHVARDIACGCQYLEENHFIHRDIAARNCLLTCPGPGRVAKIGDFGMARDIYRASYYRKGGCAMLPVKWMPPEAFMEGIFTSKTDTWSFGVLLWEIFSLGYMPYPSKSNQEVLEFVTSGGRMDPPKNCPGPVYRIMTQCWQHQPEDRPNFAIILERIEYCTQDPDVINTALPIEYGPLVEEEEKVPVRPKDPEGVPPLLVSQQAKREEERSPAAPPPLPTTSSGKAAKKPTAAEISVRVPRGPAVEGGHVNMAFSQSNPPSELHKVHGSRNKPTSLWNPTYGSWFTEKPTKKNNPIAKKEPHDRGNLGLEGSCTVPPNVATGRLPGASLLLEPSSLTANMKEVPLFRLRHFPCGNVNYGYQQQGLPLEAATAPGAGHYEDTILKSKNSMNQPGP

> <PDB ID(s) of Target Chain>
2XB7,2XBA,3AOX,5FTO,5FTQ,6E0R,6EBW,6EDL,6MX8

> <UniProt (SwissProt) Recommended Name of Target Chain>
ALK tyrosine kinase receptor

> <UniProt (SwissProt) Entry Name of Target Chain>
ALK_HUMAN

> <UniProt (SwissProt) Primary ID of Target Chain>
Q9UM73

> <UniProt (SwissProt) Secondary ID(s) of Target Chain>
Q4ZFX9,Q53QQ6,Q53RZ4,Q59FI3,Q9Y4K6

> <UniProt (SwissProt) Alternative ID(s) of Target Chain>


> <UniProt (TrEMBL) Submitted Name of Target Chain>


> <UniProt (TrEMBL) Entry Name of Target Chain>


> <UniProt (TrEMBL) Primary ID of Target Chain>


> <UniProt (TrEMBL) Secondary ID(s) of Target Chain>


> <UniProt (TrEMBL) Alternative ID(s) of Target Chain>


$$$$

  SciTegic07131809072D

 38 42  0  0  0  0            999 V2000
   11.2467  -16.3727    0.0000 O   0  0
   11.6594  -17.0826    0.0000 S   0  0
   12.0678  -16.3702    0.0000 O   0  0
   10.9605  -19.9427    0.0000 C   0  0
   10.9594  -20.7623    0.0000 C   0  0
   11.6674  -21.1712    0.0000 N   0  0
   12.3771  -20.7618    0.0000 C   0  0
   12.3742  -19.9391    0.0000 N   0  0
   11.6656  -19.5339    0.0000 C   0  0
   10.2527  -19.5343    0.0000 Cl  0  0
   13.0854  -21.1693    0.0000 N   0  0
   13.7925  -20.7596    0.0000 C   0  0
   14.4975  -21.1675    0.0000 C   0  0
   15.2041  -20.7585    0.0000 C   0  0
   13.7863  -19.9445    0.0000 C   0  0
   14.4976  -21.9847    0.0000 O   0  0
   15.2053  -22.3932    0.0000 C   0  0
   11.6632  -18.7167    0.0000 N   0  0
   14.4899  -19.5331    0.0000 C   0  0
   15.2040  -19.9442    0.0000 C   0  0
   10.9542  -18.3102    0.0000 C   0  0
   10.9551  -17.4937    0.0000 C   0  0
   10.2471  -17.0873    0.0000 C   0  0
    9.5396  -17.4981    0.0000 C   0  0
    9.5447  -18.3195    0.0000 C   0  0
   10.2533  -18.7222    0.0000 C   0  0
   12.3706  -17.4927    0.0000 C   0  0
   13.0780  -17.0836    0.0000 C   0  0
   12.3712  -18.3099    0.0000 C   0  0
   14.4850  -18.7113    0.0000 C   0  0
   15.1996  -18.3045    0.0000 N   0  0
   13.7753  -18.3004    0.0000 O   0  0
   15.9145  -18.7102    0.0000 C   0  0
   15.9120  -19.5323    0.0000 C   0  0
   16.6216  -19.9438    0.0000 C   0  0
   17.3342  -19.5342    0.0000 C   0  0
   17.3327  -18.7089    0.0000 C   0  0
   16.6225  -18.3013    0.0000 C   0  0
  2  1  2  0
  3  2  2  0
  4  5  2  0
  5  6  1  0
  6  7  2  0
  7  8  1  0
  8  9  2  0
  9  4  1  0
  4 10  1  0
  7 11  1  0
 11 12  1  0
 12 13  2  0
 13 14  1  0
 14 20  2  0
 19 15  2  0
 15 12  1  0
 13 16  1  0
 16 17  1  0
  9 18  1  0
 19 20  1  0
 19 30  1  0
 20 34  1  0
 33 31  1  0
 18 21  1  0
 21 22  2  0
 22 23  1  0
 23 24  2  0
 24 25  1  0
 25 26  2  0
 26 21  1  0
 22  2  1  0
  2 27  1  0
 27 28  1  0
 27 29  1  0
 30 31  1  0
 30 32  2  0
 33 34  2  0
 34 35  1  0
 35 36  2  0
 36 37  1  0
 37 38  2  0
 38 33  1  0
M  END
> <From>
www.bindingDB.org

> <BindingDB Reactant_set_id>
50755101

> <Ligand InChI>
InChI=1S/C27H24ClN5O4S/c1-15(2)38(35,36)24-11-7-6-10-21(24)30-25-19(28)14-29-27(33-25)32-22-12-18-17(13-23(22)37-3)16-8-4-5-9-20(16)31-26(18)34/h4-15H,1-3H3,(H,31,34)(H2,29,30,32,33)

> <Ligand InChI Key>
UTNZTKXNTBTXTL-UHFFFAOYSA-N

> <BindingDB MonomerID>
50240275

> <BindingDB Ligand Name>
CHEMBL4074115

> <Target Name Assigned by Curator or DataSource>
ALK tyrosine kinase receptor

> <Target Source Organism According to Curator or DataSource>
Homo sapiens

> <Ki (nM)>


> <IC50 (nM)>
 310

> <Kd (nM)>


> <EC50 (nM)>


> <kon (M-1-s-1)>


> <koff (s-1)>


> <pH>


> <Temp C>


> <Curation/DataSource>
ChEMBL

> <Article DOI>
10.1016/j.bmcl.2017.03.073

> <PMID>
28385505

> <PubChem AID>


> <Patent Number>


> <Authors>
Achary, R; Mathi, GR; Lee, DH; Yun, CS; Lee, CO; Kim, HR; Park, CH; Kim, P; Hwang, JY

> <Institution>
University of Science&amp; Technology

> <Link to Ligand in BindingDB>
http://www.bindingdb.org/bind/chemsearch/marvin/MolStructure.jsp?monomerid=50240275

> <Link to Ligand-Target Pair in BindingDB>
http://www.bindingdb.org/jsp/dbsearch/PrimarySearch_ki.jsp?energyterm=kJ/mole&tag=pol&polymerid=5809&target=ALK+tyrosine+kinase+receptor&column=ki&startPg=0&Increment=50&submit=Search

> <Link to Ligand-Target Pair in BindingDB>
http://www.bindingdb.org/jsp/dbsearch/PrimarySearch_ki.jsp?energyterm=kJ/mole&tag=r21&monomerid=50240275&enzyme=ALK+tyrosine+kinase+receptor&column=ki&startPg=0&Increment=50&submit=Search

> <Ligand HET ID in PDB>


> <PDB ID(s) for Ligand-Target Complex>


> <PubChem CID>
44448767

> <PubChem SID>
85714955

> <ChEBI ID of Ligand>


> <ChEMBL ID of Ligand>
CHEMBL4074115

> <DrugBank ID of Ligand>


> <IUPHAR_GRAC ID of Ligand>


> <KEGG ID of Ligand>


> <ZINC ID of Ligand>


> <Number of Protein Chains in Target (>1 implies a multichain complex)>
1

> <BindingDB Target Chain Sequence>
MGAIGLLWLLPLLLSTAAVGSGMGTGQRAGSPAAGPPLQPREPLSYSRLQRKSLAVDFVVPSLFRVYARDLLLPPSSSELKAGRPEARGSLALDCAPLLRLLGPAPGVSWTAGSPAPAEARTLSRVLKGGSVRKLRRAKQLVLELGEEAILEGCVGPPGEAAVGLLQFNLSELFSWWIRQGEGRLRIRLMPEKKASEVGREGRLSAAIRASQPRLLFQIFGTGHSSLESPTNMPSPSPDYFTWNLTWIMKDSFPFLSHRSRYGLECSFDFPCELEYSPPLHDLRNQSWSWRRIPSEEASQMDLLDGPGAERSKEMPRGSFLLLNTSADSKHTILSPWMRSSSEHCTLAVSVHRHLQPSGRYIAQLLPHNEAAREILLMPTPGKHGWTVLQGRIGRPDNPFRVALEYISSGNRSLSAVDFFALKNCSEGTSPGSKMALQSSFTCWNGTVLQLGQACDFHQDCAQGEDESQMCRKLPVGFYCNFEDGFCGWTQGTLSPHTPQWQVRTLKDARFQDHQDHALLLSTTDVPASESATVTSATFPAPIKSSPCELRMSWLIRGVLRGNVSLVLVENKTGKEQGRMVWHVAAYEGLSLWQWMVLPLLDVSDRFWLQMVAWWGQGSRAIVAFDNISISLDCYLTISGEDKILQNTAPKSRNLFERNPNKELKPGENSPRQTPIFDPTVHWLFTTCGASGPHGPTQAQCNNAYQNSNLSVEVGSEGPLKGIQIWKVPATDTYSISGYGAAGGKGGKNTMMRSHGVSVLGIFNLEKDDMLYILVGQQGEDACPSTNQLIQKVCIGENNVIEEEIRVNRSVHEWAGGGGGGGGATYVFKMKDGVPVPLIIAAGGGGRAYGAKTDTFHPERLENNSSVLGLNGNSGAAGGGGGWNDNTSLLWAGKSLQEGATGGHSCPQAMKKWGWETRGGFGGGGGGCSSGGGGGGYIGGNAASNNDPEMDGEDGVSFISPLGILYTPALKVMEGHGEVNIKHYLNCSHCEVDECHMDPESHKVICFCDHGTVLAEDGVSCIVSPTPEPHLPLSLILSVVTSALVAALVLAFSGIMIVYRRKHQELQAMQMELQSPEYKLSKLRTSTIMTDYNPNYCFAGKTSSISDLKEVPRKNITLIRGLGHGAFGEVYEGQVSGMPNDPSPLQVAVKTLPEVCSEQDELDFLMEALIISKFNHQNIVRCIGVSLQSLPRFILLELMAGGDLKSFLRETRPRPSQPSSLAMLDLLHVARDIACGCQYLEENHFIHRDIAARNCLLTCPGPGRVAKIGDFGMARDIYRASYYRKGGCAMLPVKWMPPEAFMEGIFTSKTDTWSFGVLLWEIFSLGYMPYPSKSNQEVLEFVTSGGRMDPPKNCPGPVYRIMTQCWQHQPEDRPNFAIILERIEYCTQDPDVINTALPIEYGPLVEEEEKVPVRPKDPEGVPPLLVSQQAKREEERSPAAPPPLPTTSSGKAAKKPTAAEISVRVPRGPAVEGGHVNMAFSQSNPPSELHKVHGSRNKPTSLWNPTYGSWFTEKPTKKNNPIAKKEPHDRGNLGLEGSCTVPPNVATGRLPGASLLLEPSSLTANMKEVPLFRLRHFPCGNVNYGYQQQGLPLEAATAPGAGHYEDTILKSKNSMNQPGP

> <PDB ID(s) of Target Chain>
2XB7,2XBA,3AOX,5FTO,5FTQ,6E0R,6EBW,6EDL,6MX8

> <UniProt (SwissProt) Recommended Name of Target Chain>
ALK tyrosine kinase receptor

> <UniProt (SwissProt) Entry Name of Target Chain>
ALK_HUMAN

> <UniProt (SwissProt) Primary ID of Target Chain>
Q9UM73

> <UniProt (SwissProt) Secondary ID(s) of Target Chain>
Q4ZFX9,Q53QQ6,Q53RZ4,Q59FI3,Q9Y4K6

> <UniProt (SwissProt) Alternative ID(s) of Target Chain>


> <UniProt (TrEMBL) Submitted Name of Target Chain>


> <UniProt (TrEMBL) Entry Name of Target Chain>


> <UniProt (TrEMBL) Primary ID of Target Chain>


> <UniProt (TrEMBL) Secondary ID(s) of Target Chain>


> <UniProt (TrEMBL) Alternative ID(s) of Target Chain>


$$$$
BindingDB_50334595_mol_1

Vconf v2.0 Academic SN VC001-00000579
 68 72  0  0  0  0  0  0  0  0999 V2000
   12.9330    3.0290    0.6910 N   0  0  0  0  0  0  0  0  0  0  0
   12.8420    1.6980    0.9190 C   0  0  0  0  0  0  0  0  0  0  0
   13.9530    0.9460    0.7550 N   0  0  0  0  0  0  0  0  0  0  0
   15.1510    1.4450    0.3680 C   0  0  0  0  0  0  0  0  0  0  0
   15.2560    2.8280    0.1230 C   0  0  0  0  0  0  0  0  0  0  0
   14.0980    3.6050    0.3020 C   0  0  0  0  0  0  0  0  0  0  0
   11.6670    1.1460    1.3080 N   0  0  0  0  0  0  0  0  0  0  0
   16.7010    3.5580   -0.3770 Cl  0  0  0  0  0  0  0  0  0  0  0
   16.2040    0.5980    0.2000 N   0  0  0  0  0  0  0  0  0  0  0
   11.5160   -0.1750    1.5950 C   0  0  0  0  0  0  0  0  0  0  0
   11.7700   -1.1880    0.6400 C   0  0  0  0  0  0  0  0  0  0  0
   11.6660   -2.5410    1.0260 C   0  0  0  0  0  0  0  0  0  0  0
   11.3050   -2.8950    2.3400 C   0  0  0  0  0  0  0  0  0  0  0
   11.0250   -1.8770    3.2710 C   0  0  0  0  0  0  0  0  0  0  0
   11.1240   -0.5260    2.8990 C   0  0  0  0  0  0  0  0  0  0  0
   11.2440   -4.2050    2.7040 N   0  0  0  0  0  0  0  0  0  0  0
   10.0870   -4.7660    3.3250 C   0  0  0  0  0  0  0  0  0  0  0
   10.4900   -5.3490    4.6880 C   0  0  0  0  0  0  0  0  0  0  0
   11.5970   -6.2360    4.5170 O   0  0  0  0  0  0  0  0  0  0  0
   12.7490   -5.6730    3.8900 C   0  0  0  0  0  0  0  0  0  0  0
   12.3580   -5.0830    2.5260 C   0  0  0  0  0  0  0  0  0  0  0
   12.1200   -0.8080   -0.6260 O   0  0  0  0  0  0  0  0  0  0  0
   12.6000   -1.7290   -1.6090 C   0  0  0  0  0  0  0  0  0  0  0
   16.1260   -0.7500    0.3560 C   0  0  0  0  0  0  0  0  0  0  0
   16.4510   -1.5870   -0.7300 C   0  0  0  0  0  0  0  0  0  0  0
   16.3070   -2.9810   -0.6140 C   0  0  0  0  0  0  0  0  0  0  0
   15.8300   -3.5550    0.5810 C   0  0  0  0  0  0  0  0  0  0  0
   15.5370   -2.7190    1.6760 C   0  0  0  0  0  0  0  0  0  0  0
   15.6910   -1.3280    1.5670 C   0  0  0  0  0  0  0  0  0  0  0
   16.8760   -1.0580   -1.9070 O   0  0  0  0  0  0  0  0  0  0  0
   15.8800   -0.6620   -2.8520 C   0  0  0  0  0  0  0  0  0  0  0
   15.6330   -4.8970    0.6740 N   0  0  0  0  0  0  0  0  0  0  0
   16.2690   -5.6810    1.6840 C   0  0  0  0  0  0  0  0  0  0  0
   17.0780   -6.7990    1.0070 C   0  0  0  0  0  0  0  0  0  0  0
   16.2470   -7.5060    0.0870 O   0  0  0  0  0  0  0  0  0  0  0
   15.6230   -6.7080   -0.9200 C   0  0  0  0  0  0  0  0  0  0  0
   14.7980   -5.5980   -0.2490 C   0  0  0  0  0  0  0  0  0  0  0
   14.1210    4.6120    0.1390 H   0  0  0  0  0  0  0  0  0  0  0
   10.9130    1.7370    1.4520 H   0  0  0  0  0  0  0  0  0  0  0
   17.0360    0.9660   -0.1360 H   0  0  0  0  0  0  0  0  0  0  0
   11.8610   -3.2790    0.3490 H   0  0  0  0  0  0  0  0  0  0  0
   10.7610   -2.1180    4.2270 H   0  0  0  0  0  0  0  0  0  0  0
   10.9360    0.2010    3.5900 H   0  0  0  0  0  0  0  0  0  0  0
    9.7030   -5.5710    2.6970 H   0  0  0  0  0  0  0  0  0  0  0
    9.2930   -4.0290    3.4680 H   0  0  0  0  0  0  0  0  0  0  0
   10.7720   -4.5380    5.3620 H   0  0  0  0  0  0  0  0  0  0  0
    9.6490   -5.8940    5.1160 H   0  0  0  0  0  0  0  0  0  0  0
   13.5010   -6.4490    3.7490 H   0  0  0  0  0  0  0  0  0  0  0
   13.1610   -4.8850    4.5220 H   0  0  0  0  0  0  0  0  0  0  0
   12.0700   -5.8950    1.8580 H   0  0  0  0  0  0  0  0  0  0  0
   13.2240   -4.5710    2.1040 H   0  0  0  0  0  0  0  0  0  0  0
   12.8560   -1.1770   -2.5120 H   0  0  0  0  0  0  0  0  0  0  0
   13.4910   -2.2410   -1.2430 H   0  0  0  0  0  0  0  0  0  0  0
   11.8280   -2.4620   -1.8500 H   0  0  0  0  0  0  0  0  0  0  0
   16.5310   -3.5780   -1.4110 H   0  0  0  0  0  0  0  0  0  0  0
   15.1940   -3.1210    2.5490 H   0  0  0  0  0  0  0  0  0  0  0
   15.4590   -0.7330    2.3630 H   0  0  0  0  0  0  0  0  0  0  0
   16.3730   -0.2430   -3.7290 H   0  0  0  0  0  0  0  0  0  0  0
   15.2860   -1.5240   -3.1600 H   0  0  0  0  0  0  0  0  0  0  0
   15.2230    0.0960   -2.4220 H   0  0  0  0  0  0  0  0  0  0  0
   15.5050   -6.1310    2.3190 H   0  0  0  0  0  0  0  0  0  0  0
   16.9400   -5.0860    2.3070 H   0  0  0  0  0  0  0  0  0  0  0
   17.9240   -6.3640    0.4740 H   0  0  0  0  0  0  0  0  0  0  0
   17.4500   -7.4900    1.7640 H   0  0  0  0  0  0  0  0  0  0  0
   14.9690   -7.3330   -1.5270 H   0  0  0  0  0  0  0  0  0  0  0
   16.3860   -6.2610   -1.5580 H   0  0  0  0  0  0  0  0  0  0  0
   13.9740   -6.0580    0.2960 H   0  0  0  0  0  0  0  0  0  0  0
   14.3830   -4.9420   -1.0170 H   0  0  0  0  0  0  0  0  0  0  0
  1  2  1  0  0  0  0
  1  6  2  0  0  0  0
  2  3  2  0  0  0  0
  2  7  1  0  0  0  0
  3  4  1  0  0  0  0
  4  5  2  0  0  0  0
  4  9  1  0  0  0  0
  5  6  1  0  0  0  0
  5  8  1  0  0  0  0
  6 38  1  0  0  0  0
  7 10  1  0  0  0  0
  7 39  1  0  0  0  0
  9 24  1  0  0  0  0
  9 40  1  0  0  0  0
 10 11  2  0  0  0  0
 10 15  1  0  0  0  0
 11 12  1  0  0  0  0
 11 22  1  0  0  0  0
 12 13  2  0  0  0  0
 12 41  1  0  0  0  0
 13 14  1  0  0  0  0
 13 16  1  0  0  0  0
 14 15  2  0  0  0  0
 14 42  1  0  0  0  0
 15 43  1  0  0  0  0
 16 17  1  0  0  0  0
 16 21  1  0  0  0  0
 17 18  1  0  0  0  0
 17 44  1  0  0  0  0
 17 45  1  0  0  0  0
 18 19  1  0  0  0  0
 18 46  1  0  0  0  0
 18 47  1  0  0  0  0
 19 20  1  0  0  0  0
 20 21  1  0  0  0  0
 20 48  1  0  0  0  0
 20 49  1  0  0  0  0
 21 50  1  0  0  0  0
 21 51  1  0  0  0  0
 22 23  1  0  0  0  0
 23 52  1  0  0  0  0
 23 53  1  0  0  0  0
 23 54  1  0  0  0  0
 24 25  2  0  0  0  0
 24 29  1  0  0  0  0
 25 26  1  0  0  0  0
 25 30  1  0  0  0  0
 26 27  2  0  0  0  0
 26 55  1  0  0  0  0
 27 28  1  0  0  0  0
 27 32  1  0  0  0  0
 28 29  2  0  0  0  0
 28 56  1  0  0  0  0
 29 57  1  0  0  0  0
 30 31  1  0  0  0  0
 31 58  1  0  0  0  0
 31 59  1  0  0  0  0
 31 60  1  0  0  0  0
 32 33  1  0  0  0  0
 32 37  1  0  0  0  0
 33 34  1  0  0  0  0
 33 61  1  0  0  0  0
 33 62  1  0  0  0  0
 34 35  1  0  0  0  0
 34 63  1  0  0  0  0
 34 64  1  0  0  0  0
 35 36  1  0  0  0  0
 36 37  1  0  0  0  0
 36 65  1  0  0  0  0
 36 66  1  0  0  0  0
 37 67  1  0  0  0  0
 37 68  1  0  0  0  0
M  END
> <From>
www.bindingDB.org

> <BindingDB Reactant_set_id>
50170138

> <Ligand InChI>
InChI=1S/C26H31ClN6O4/c1-34-23-15-18(32-7-11-36-12-8-32)3-5-21(23)29-25-20(27)17-28-26(31-25)30-22-6-4-19(16-24(22)35-2)33-9-13-37-14-10-33/h3-6,15-17H,7-14H2,1-2H3,(H2,28,29,30,31)

> <Ligand InChI Key>
DNVHYSBDUBOLFU-UHFFFAOYSA-N

> <BindingDB MonomerID>
50334595

> <BindingDB Ligand Name>
5-chloro-N2,N4-bis(2-methoxy-4-morpholinophenyl)pyrimidine-2,4-diamine::CHEMBL1642253

> <Target Name Assigned by Curator or DataSource>
ALK tyrosine kinase receptor

> <Target Source Organism According to Curator or DataSource>
Homo sapiens

> <Ki (nM)>


> <IC50 (nM)>
 120

> <Kd (nM)>


> <EC50 (nM)>


> <kon (M-1-s-1)>


> <koff (s-1)>


> <pH>


> <Temp C>


> <Curation/DataSource>
ChEMBL

> <Article DOI>
10.1016/j.bmcl.2010.10.115

> <PMID>
21074994

> <PubChem AID>


> <Patent Number>


> <Authors>
Mesaros, EF; Burke, JP; Parrish, JD; Dugan, BJ; Anzalone, AV; Angeles, TS; Albom, MS; Aimone, LD; Quail, MR; Wan, W; Lu, L; Huang, Z; Ator, MA; Ruggeri, BA; Cheng, M; Ott, GR; Dorsey, BD

> <Institution>
 Cephalon, Inc

> <Link to Ligand in BindingDB>
http://www.bindingdb.org/bind/chemsearch/marvin/MolStructure.jsp?monomerid=50334595

> <Link to Ligand-Target Pair in BindingDB>
http://www.bindingdb.org/jsp/dbsearch/PrimarySearch_ki.jsp?energyterm=kJ/mole&tag=pol&polymerid=5809&target=ALK+tyrosine+kinase+receptor&column=ki&startPg=0&Increment=50&submit=Search

> <Link to Ligand-Target Pair in BindingDB>
http://www.bindingdb.org/jsp/dbsearch/PrimarySearch_ki.jsp?energyterm=kJ/mole&tag=r21&monomerid=50334595&enzyme=ALK+tyrosine+kinase+receptor&column=ki&startPg=0&Increment=50&submit=Search

> <Ligand HET ID in PDB>


> <PDB ID(s) for Ligand-Target Complex>


> <PubChem CID>
53319963

> <PubChem SID>
125084697

> <ChEBI ID of Ligand>


> <ChEMBL ID of Ligand>
CHEMBL1642253

> <DrugBank ID of Ligand>


> <IUPHAR_GRAC ID of Ligand>


> <KEGG ID of Ligand>


> <ZINC ID of Ligand>
ZINC66252804

> <Number of Protein Chains in Target (>1 implies a multichain complex)>
1

> <BindingDB Target Chain Sequence>
MGAIGLLWLLPLLLSTAAVGSGMGTGQRAGSPAAGPPLQPREPLSYSRLQRKSLAVDFVVPSLFRVYARDLLLPPSSSELKAGRPEARGSLALDCAPLLRLLGPAPGVSWTAGSPAPAEARTLSRVLKGGSVRKLRRAKQLVLELGEEAILEGCVGPPGEAAVGLLQFNLSELFSWWIRQGEGRLRIRLMPEKKASEVGREGRLSAAIRASQPRLLFQIFGTGHSSLESPTNMPSPSPDYFTWNLTWIMKDSFPFLSHRSRYGLECSFDFPCELEYSPPLHDLRNQSWSWRRIPSEEASQMDLLDGPGAERSKEMPRGSFLLLNTSADSKHTILSPWMRSSSEHCTLAVSVHRHLQPSGRYIAQLLPHNEAAREILLMPTPGKHGWTVLQGRIGRPDNPFRVALEYISSGNRSLSAVDFFALKNCSEGTSPGSKMALQSSFTCWNGTVLQLGQACDFHQDCAQGEDESQMCRKLPVGFYCNFEDGFCGWTQGTLSPHTPQWQVRTLKDARFQDHQDHALLLSTTDVPASESATVTSATFPAPIKSSPCELRMSWLIRGVLRGNVSLVLVENKTGKEQGRMVWHVAAYEGLSLWQWMVLPLLDVSDRFWLQMVAWWGQGSRAIVAFDNISISLDCYLTISGEDKILQNTAPKSRNLFERNPNKELKPGENSPRQTPIFDPTVHWLFTTCGASGPHGPTQAQCNNAYQNSNLSVEVGSEGPLKGIQIWKVPATDTYSISGYGAAGGKGGKNTMMRSHGVSVLGIFNLEKDDMLYILVGQQGEDACPSTNQLIQKVCIGENNVIEEEIRVNRSVHEWAGGGGGGGGATYVFKMKDGVPVPLIIAAGGGGRAYGAKTDTFHPERLENNSSVLGLNGNSGAAGGGGGWNDNTSLLWAGKSLQEGATGGHSCPQAMKKWGWETRGGFGGGGGGCSSGGGGGGYIGGNAASNNDPEMDGEDGVSFISPLGILYTPALKVMEGHGEVNIKHYLNCSHCEVDECHMDPESHKVICFCDHGTVLAEDGVSCIVSPTPEPHLPLSLILSVVTSALVAALVLAFSGIMIVYRRKHQELQAMQMELQSPEYKLSKLRTSTIMTDYNPNYCFAGKTSSISDLKEVPRKNITLIRGLGHGAFGEVYEGQVSGMPNDPSPLQVAVKTLPEVCSEQDELDFLMEALIISKFNHQNIVRCIGVSLQSLPRFILLELMAGGDLKSFLRETRPRPSQPSSLAMLDLLHVARDIACGCQYLEENHFIHRDIAARNCLLTCPGPGRVAKIGDFGMARDIYRASYYRKGGCAMLPVKWMPPEAFMEGIFTSKTDTWSFGVLLWEIFSLGYMPYPSKSNQEVLEFVTSGGRMDPPKNCPGPVYRIMTQCWQHQPEDRPNFAIILERIEYCTQDPDVINTALPIEYGPLVEEEEKVPVRPKDPEGVPPLLVSQQAKREEERSPAAPPPLPTTSSGKAAKKPTAAEISVRVPRGPAVEGGHVNMAFSQSNPPSELHKVHGSRNKPTSLWNPTYGSWFTEKPTKKNNPIAKKEPHDRGNLGLEGSCTVPPNVATGRLPGASLLLEPSSLTANMKEVPLFRLRHFPCGNVNYGYQQQGLPLEAATAPGAGHYEDTILKSKNSMNQPGP

> <PDB ID(s) of Target Chain>
2XB7,2XBA,3AOX,5FTO,5FTQ,6E0R,6EBW,6EDL,6MX8

> <UniProt (SwissProt) Recommended Name of Target Chain>
ALK tyrosine kinase receptor

> <UniProt (SwissProt) Entry Name of Target Chain>
ALK_HUMAN

> <UniProt (SwissProt) Primary ID of Target Chain>
Q9UM73

> <UniProt (SwissProt) Secondary ID(s) of Target Chain>
Q4ZFX9,Q53QQ6,Q53RZ4,Q59FI3,Q9Y4K6

> <UniProt (SwissProt) Alternative ID(s) of Target Chain>


> <UniProt (TrEMBL) Submitted Name of Target Chain>


> <UniProt (TrEMBL) Entry Name of Target Chain>


> <UniProt (TrEMBL) Primary ID of Target Chain>


> <UniProt (TrEMBL) Secondary ID(s) of Target Chain>


> <UniProt (TrEMBL) Alternative ID(s) of Target Chain>


$$$$
BindingDB_50363240

Vconf v2.0 Academic SN VC001-00000528
 55 58  0  0  0  0  0  0  0  0999 V2000
   12.5890    1.8730    1.0200 N   0  0  0  0  0  0  0  0  0  0  0
   12.4370    0.5820    0.6470 C   0  0  0  0  0  0  0  0  0  0  0
   13.5080   -0.2410    0.7410 N   0  0  0  0  0  0  0  0  0  0  0
   14.7200    0.1540    1.1960 C   0  0  0  0  0  0  0  0  0  0  0
   14.8900    1.4970    1.5850 C   0  0  0  0  0  0  0  0  0  0  0
   13.7740    2.3470    1.4770 C   0  0  0  0  0  0  0  0  0  0  0
   11.2350    0.1320    0.2140 N   0  0  0  0  0  0  0  0  0  0  0
   11.0080   -1.1610   -0.1220 C   0  0  0  0  0  0  0  0  0  0  0
   10.0900   -1.9170    0.6310 C   0  0  0  0  0  0  0  0  0  0  0
    9.9160   -3.2860    0.3650 C   0  0  0  0  0  0  0  0  0  0  0
   11.7110   -1.7750   -1.1780 C   0  0  0  0  0  0  0  0  0  0  0
   16.3600    2.1030    2.1700 Cl  0  0  0  0  0  0  0  0  0  0  0
   15.7400   -0.7460    1.2650 N   0  0  0  0  0  0  0  0  0  0  0
   15.6540   -2.0510    0.8910 C   0  0  0  0  0  0  0  0  0  0  0
   16.5500   -2.5040   -0.0970 C   0  0  0  0  0  0  0  0  0  0  0
   16.5080   -3.8370   -0.5390 C   0  0  0  0  0  0  0  0  0  0  0
   15.5770   -4.7290    0.0130 C   0  0  0  0  0  0  0  0  0  0  0
   14.6900   -4.2900    1.0080 C   0  0  0  0  0  0  0  0  0  0  0
   14.7220   -2.9530    1.4610 C   0  0  0  0  0  0  0  0  0  0  0
   10.6510   -3.9080   -0.6630 C   0  0  0  0  0  0  0  0  0  0  0
   11.5370   -3.1430   -1.4440 C   0  0  0  0  0  0  0  0  0  0  0
   10.5380   -5.2410   -0.8830 N   0  0  0  0  0  0  0  0  0  0  0
   11.0960   -6.1870    0.0270 C   0  0  0  0  0  0  0  0  0  0  0
   12.1380   -7.0370   -0.7190 C   0  0  0  0  0  0  0  0  0  0  0
   11.5250   -7.6600   -1.9100 N   0  0  0  0  0  0  0  0  0  0  0
   10.9920   -6.6170   -2.8120 C   0  0  0  0  0  0  0  0  0  0  0
    9.9520   -5.7580   -2.0750 C   0  0  0  0  0  0  0  0  0  0  0
   12.5230   -8.4720   -2.6270 C   0  0  0  0  0  0  0  0  0  0  0
   13.8840   -2.4870    2.4370 O   0  0  0  0  0  0  0  0  0  0  0
   12.8480   -3.2830    3.0190 C   0  0  0  0  0  0  0  0  0  0  0
   13.8450    3.3290    1.7470 H   0  0  0  0  0  0  0  0  0  0  0
   10.4900    0.7520    0.2100 H   0  0  0  0  0  0  0  0  0  0  0
    9.5710   -1.4800    1.3930 H   0  0  0  0  0  0  0  0  0  0  0
    9.2670   -3.8340    0.9300 H   0  0  0  0  0  0  0  0  0  0  0
   12.3720   -1.2340   -1.7360 H   0  0  0  0  0  0  0  0  0  0  0
   16.6070   -0.4190    1.5500 H   0  0  0  0  0  0  0  0  0  0  0
   17.2280   -1.8610   -0.5060 H   0  0  0  0  0  0  0  0  0  0  0
   17.1550   -4.1560   -1.2610 H   0  0  0  0  0  0  0  0  0  0  0
   15.5450   -5.6980   -0.3070 H   0  0  0  0  0  0  0  0  0  0  0
   14.0210   -4.9510    1.4030 H   0  0  0  0  0  0  0  0  0  0  0
   12.0700   -3.5850   -2.1930 H   0  0  0  0  0  0  0  0  0  0  0
   10.3030   -6.8380    0.3980 H   0  0  0  0  0  0  0  0  0  0  0
   11.5780   -5.7030    0.8790 H   0  0  0  0  0  0  0  0  0  0  0
   12.9760   -6.4010   -1.0130 H   0  0  0  0  0  0  0  0  0  0  0
   12.5020   -7.8150   -0.0460 H   0  0  0  0  0  0  0  0  0  0  0
   11.8000   -5.9750   -3.1670 H   0  0  0  0  0  0  0  0  0  0  0
   10.5110   -7.0870   -3.6710 H   0  0  0  0  0  0  0  0  0  0  0
    9.0990   -6.3840   -1.8100 H   0  0  0  0  0  0  0  0  0  0  0
    9.6090   -4.9620   -2.7400 H   0  0  0  0  0  0  0  0  0  0  0
   12.0500   -8.9650   -3.4780 H   0  0  0  0  0  0  0  0  0  0  0
   13.3420   -7.8460   -2.9860 H   0  0  0  0  0  0  0  0  0  0  0
   12.9240   -9.2360   -1.9600 H   0  0  0  0  0  0  0  0  0  0  0
   12.2780   -2.6680    3.7160 H   0  0  0  0  0  0  0  0  0  0  0
   12.1740   -3.6530    2.2450 H   0  0  0  0  0  0  0  0  0  0  0
   13.2810   -4.1250    3.5610 H   0  0  0  0  0  0  0  0  0  0  0
  1  2  2  0  0  0  0
  1  6  1  0  0  0  0
  2  3  1  0  0  0  0
  2  7  1  0  0  0  0
  3  4  2  0  0  0  0
  4  5  1  0  0  0  0
  4 13  1  0  0  0  0
  5  6  2  0  0  0  0
  5 12  1  0  0  0  0
  6 31  1  0  0  0  0
  7  8  1  0  0  0  0
  7 32  1  0  0  0  0
  8  9  2  0  0  0  0
  8 11  1  0  0  0  0
  9 10  1  0  0  0  0
  9 33  1  0  0  0  0
 10 20  2  0  0  0  0
 10 34  1  0  0  0  0
 11 21  2  0  0  0  0
 11 35  1  0  0  0  0
 13 14  1  0  0  0  0
 13 36  1  0  0  0  0
 14 15  2  0  0  0  0
 14 19  1  0  0  0  0
 15 16  1  0  0  0  0
 15 37  1  0  0  0  0
 16 17  2  0  0  0  0
 16 38  1  0  0  0  0
 17 18  1  0  0  0  0
 17 39  1  0  0  0  0
 18 19  2  0  0  0  0
 18 40  1  0  0  0  0
 19 29  1  0  0  0  0
 20 21  1  0  0  0  0
 20 22  1  0  0  0  0
 21 41  1  0  0  0  0
 22 23  1  0  0  0  0
 22 27  1  0  0  0  0
 23 24  1  0  0  0  0
 23 42  1  0  0  0  0
 23 43  1  0  0  0  0
 24 25  1  0  0  0  0
 24 44  1  0  0  0  0
 24 45  1  0  0  0  0
 25 26  1  0  0  0  0
 25 28  1  0  0  0  0
 26 27  1  0  0  0  0
 26 46  1  0  0  0  0
 26 47  1  0  0  0  0
 27 48  1  0  0  0  0
 27 49  1  0  0  0  0
 28 50  1  0  0  0  0
 28 51  1  0  0  0  0
 28 52  1  0  0  0  0
 29 30  1  0  0  0  0
 30 53  1  0  0  0  0
 30 54  1  0  0  0  0
 30 55  1  0  0  0  0
M  END> <From>
www.bindingDB.org

> <BindingDB Reactant_set_id>
50715475

> <Ligand InChI>
InChI=1S/C22H25ClN6O/c1-28-11-13-29(14-12-28)17-9-7-16(8-10-17)25-22-24-15-18(23)21(27-22)26-19-5-3-4-6-20(19)30-2/h3-10,15H,11-14H2,1-2H3,(H2,24,25,26,27)

> <Ligand InChI Key>
SEUZSQYTZXUHCP-UHFFFAOYSA-N

> <BindingDB MonomerID>
50363240

> <BindingDB Ligand Name>
CHEMBL1946608

> <Target Name Assigned by Curator or DataSource>
ALK tyrosine kinase receptor

> <Target Source Organism According to Curator or DataSource>
Homo sapiens

> <Ki (nM)>


> <IC50 (nM)>
 100

> <Kd (nM)>


> <EC50 (nM)>


> <kon (M-1-s-1)>


> <koff (s-1)>


> <pH>


> <Temp C>


> <Curation/DataSource>
ChEMBL

> <Article DOI>
10.1021/jm201333e

> <PMID>
22172029

> <PubChem AID>


> <Patent Number>


> <Authors>
Breslin, HJ; Lane, BM; Ott, GR; Ghose, AK; Angeles, TS; Albom, MS; Cheng, M; Wan, W; Haltiwanger, RC; Wells-Knecht, KJ; Dorsey, BD

> <Institution>
Cephalon, Inc.

> <Link to Ligand in BindingDB>
http://www.bindingdb.org/bind/chemsearch/marvin/MolStructure.jsp?monomerid=50363240

> <Link to Ligand-Target Pair in BindingDB>
http://www.bindingdb.org/jsp/dbsearch/PrimarySearch_ki.jsp?energyterm=kJ/mole&tag=pol&polymerid=5809&target=ALK+tyrosine+kinase+receptor&column=ki&startPg=0&Increment=50&submit=Search

> <Link to Ligand-Target Pair in BindingDB>
http://www.bindingdb.org/jsp/dbsearch/PrimarySearch_ki.jsp?energyterm=kJ/mole&tag=r21&monomerid=50363240&enzyme=ALK+tyrosine+kinase+receptor&column=ki&startPg=0&Increment=50&submit=Search

> <Ligand HET ID in PDB>


> <PDB ID(s) for Ligand-Target Complex>


> <PubChem CID>
56945204

> <PubChem SID>
136967302

> <ChEBI ID of Ligand>


> <ChEMBL ID of Ligand>
CHEMBL1946608

> <DrugBank ID of Ligand>


> <IUPHAR_GRAC ID of Ligand>


> <KEGG ID of Ligand>


> <ZINC ID of Ligand>
ZINC73198799

> <Number of Protein Chains in Target (>1 implies a multichain complex)>
1

> <BindingDB Target Chain Sequence>
MGAIGLLWLLPLLLSTAAVGSGMGTGQRAGSPAAGPPLQPREPLSYSRLQRKSLAVDFVVPSLFRVYARDLLLPPSSSELKAGRPEARGSLALDCAPLLRLLGPAPGVSWTAGSPAPAEARTLSRVLKGGSVRKLRRAKQLVLELGEEAILEGCVGPPGEAAVGLLQFNLSELFSWWIRQGEGRLRIRLMPEKKASEVGREGRLSAAIRASQPRLLFQIFGTGHSSLESPTNMPSPSPDYFTWNLTWIMKDSFPFLSHRSRYGLECSFDFPCELEYSPPLHDLRNQSWSWRRIPSEEASQMDLLDGPGAERSKEMPRGSFLLLNTSADSKHTILSPWMRSSSEHCTLAVSVHRHLQPSGRYIAQLLPHNEAAREILLMPTPGKHGWTVLQGRIGRPDNPFRVALEYISSGNRSLSAVDFFALKNCSEGTSPGSKMALQSSFTCWNGTVLQLGQACDFHQDCAQGEDESQMCRKLPVGFYCNFEDGFCGWTQGTLSPHTPQWQVRTLKDARFQDHQDHALLLSTTDVPASESATVTSATFPAPIKSSPCELRMSWLIRGVLRGNVSLVLVENKTGKEQGRMVWHVAAYEGLSLWQWMVLPLLDVSDRFWLQMVAWWGQGSRAIVAFDNISISLDCYLTISGEDKILQNTAPKSRNLFERNPNKELKPGENSPRQTPIFDPTVHWLFTTCGASGPHGPTQAQCNNAYQNSNLSVEVGSEGPLKGIQIWKVPATDTYSISGYGAAGGKGGKNTMMRSHGVSVLGIFNLEKDDMLYILVGQQGEDACPSTNQLIQKVCIGENNVIEEEIRVNRSVHEWAGGGGGGGGATYVFKMKDGVPVPLIIAAGGGGRAYGAKTDTFHPERLENNSSVLGLNGNSGAAGGGGGWNDNTSLLWAGKSLQEGATGGHSCPQAMKKWGWETRGGFGGGGGGCSSGGGGGGYIGGNAASNNDPEMDGEDGVSFISPLGILYTPALKVMEGHGEVNIKHYLNCSHCEVDECHMDPESHKVICFCDHGTVLAEDGVSCIVSPTPEPHLPLSLILSVVTSALVAALVLAFSGIMIVYRRKHQELQAMQMELQSPEYKLSKLRTSTIMTDYNPNYCFAGKTSSISDLKEVPRKNITLIRGLGHGAFGEVYEGQVSGMPNDPSPLQVAVKTLPEVCSEQDELDFLMEALIISKFNHQNIVRCIGVSLQSLPRFILLELMAGGDLKSFLRETRPRPSQPSSLAMLDLLHVARDIACGCQYLEENHFIHRDIAARNCLLTCPGPGRVAKIGDFGMARDIYRASYYRKGGCAMLPVKWMPPEAFMEGIFTSKTDTWSFGVLLWEIFSLGYMPYPSKSNQEVLEFVTSGGRMDPPKNCPGPVYRIMTQCWQHQPEDRPNFAIILERIEYCTQDPDVINTALPIEYGPLVEEEEKVPVRPKDPEGVPPLLVSQQAKREEERSPAAPPPLPTTSSGKAAKKPTAAEISVRVPRGPAVEGGHVNMAFSQSNPPSELHKVHGSRNKPTSLWNPTYGSWFTEKPTKKNNPIAKKEPHDRGNLGLEGSCTVPPNVATGRLPGASLLLEPSSLTANMKEVPLFRLRHFPCGNVNYGYQQQGLPLEAATAPGAGHYEDTILKSKNSMNQPGP

> <PDB ID(s) of Target Chain>
2XB7,2XBA,3AOX,5FTO,5FTQ,6E0R,6EBW,6EDL,6MX8

> <UniProt (SwissProt) Recommended Name of Target Chain>
ALK tyrosine kinase receptor

> <UniProt (SwissProt) Entry Name of Target Chain>
ALK_HUMAN

> <UniProt (SwissProt) Primary ID of Target Chain>
Q9UM73

> <UniProt (SwissProt) Secondary ID(s) of Target Chain>
Q4ZFX9,Q53QQ6,Q53RZ4,Q59FI3,Q9Y4K6

> <UniProt (SwissProt) Alternative ID(s) of Target Chain>


> <UniProt (TrEMBL) Submitted Name of Target Chain>


> <UniProt (TrEMBL) Entry Name of Target Chain>


> <UniProt (TrEMBL) Primary ID of Target Chain>


> <UniProt (TrEMBL) Secondary ID(s) of Target Chain>


> <UniProt (TrEMBL) Alternative ID(s) of Target Chain>


$$$$
BindingDB_50363249

Vconf v2.0 Academic SN VC001-00000528
 67 71  0  0  0  0  0  0  0  0999 V2000
   -7.5430  -19.4440   -4.5680 O   0  0  0  0  0  0  0  0  0  0  0
   -6.3610  -20.1620   -3.7810 S   0  0  0  0  0  0  0  0  0  0  0
   -6.0320  -21.7040   -3.9940 O   0  0  0  0  0  0  0  0  0  0  0
   -1.0240  -22.1820    0.1700 N   0  0  0  0  0  0  0  0  0  0  0
   -1.9850  -21.5360    0.8680 C   0  0  0  0  0  0  0  0  0  0  0
   -3.1450  -21.2560    0.2290 N   0  0  0  0  0  0  0  0  0  0  0
   -3.4120  -21.5700   -1.0600 C   0  0  0  0  0  0  0  0  0  0  0
   -2.4120  -22.2470   -1.7890 C   0  0  0  0  0  0  0  0  0  0  0
   -1.2070  -22.5430   -1.1240 C   0  0  0  0  0  0  0  0  0  0  0
   -1.7830  -21.1990    2.1710 N   0  0  0  0  0  0  0  0  0  0  0
   -2.7370  -20.6620    2.9800 C   0  0  0  0  0  0  0  0  0  0  0
   -2.9500  -21.2440    4.2430 C   0  0  0  0  0  0  0  0  0  0  0
   -4.0320  -20.8330    5.0390 C   0  0  0  0  0  0  0  0  0  0  0
   -3.5760  -19.6060    2.5670 C   0  0  0  0  0  0  0  0  0  0  0
   -2.6010  -22.6800   -3.4160 Cl  0  0  0  0  0  0  0  0  0  0  0
   -4.5750  -21.1770   -1.6610 N   0  0  0  0  0  0  0  0  0  0  0
   -5.6230  -20.4570   -1.1470 C   0  0  0  0  0  0  0  0  0  0  0
   -5.8340  -20.2100    0.2290 C   0  0  0  0  0  0  0  0  0  0  0
   -6.8240  -19.3210    0.6890 C   0  0  0  0  0  0  0  0  0  0  0
   -7.6920  -18.7410   -0.2550 C   0  0  0  0  0  0  0  0  0  0  0
   -7.5590  -19.0400   -1.6200 C   0  0  0  0  0  0  0  0  0  0  0
   -6.5310  -19.8910   -2.0690 C   0  0  0  0  0  0  0  0  0  0  0
   -4.9300  -19.8550    4.5700 C   0  0  0  0  0  0  0  0  0  0  0
   -4.7130  -19.2420    3.3150 C   0  0  0  0  0  0  0  0  0  0  0
   -5.6970  -18.2960    2.7330 C   0  0  0  0  0  0  0  0  0  0  0
   -6.9440  -19.0040    2.1340 C   0  0  0  0  0  0  0  0  0  0  0
   -6.0030  -19.5310    5.3360 N   0  0  0  0  0  0  0  0  0  0  0
   -6.0150  -18.3490    6.1320 C   0  0  0  0  0  0  0  0  0  0  0
   -6.2330  -18.7410    7.6020 C   0  0  0  0  0  0  0  0  0  0  0
   -7.4610  -19.5500    7.7320 N   0  0  0  0  0  0  0  0  0  0  0
   -7.3500  -20.7710    6.9080 C   0  0  0  0  0  0  0  0  0  0  0
   -7.1340  -20.3920    5.4340 C   0  0  0  0  0  0  0  0  0  0  0
   -7.6760  -19.9140    9.1430 C   0  0  0  0  0  0  0  0  0  0  0
   -4.8550  -19.3120   -4.3090 C   0  0  0  0  0  0  0  0  0  0  0
   -4.6020  -19.6020   -5.7940 C   0  0  0  0  0  0  0  0  0  0  0
   -4.9780  -17.7980   -4.0800 C   0  0  0  0  0  0  0  0  0  0  0
   -0.4540  -23.0280   -1.6140 H   0  0  0  0  0  0  0  0  0  0  0
   -0.9390  -21.4590    2.5720 H   0  0  0  0  0  0  0  0  0  0  0
   -2.3410  -21.9940    4.5700 H   0  0  0  0  0  0  0  0  0  0  0
   -4.1850  -21.2720    5.9480 H   0  0  0  0  0  0  0  0  0  0  0
   -3.4150  -19.1620    1.6620 H   0  0  0  0  0  0  0  0  0  0  0
   -4.6300  -21.3780   -2.6080 H   0  0  0  0  0  0  0  0  0  0  0
   -5.2690  -20.6850    0.9220 H   0  0  0  0  0  0  0  0  0  0  0
   -8.4270  -18.1020    0.0500 H   0  0  0  0  0  0  0  0  0  0  0
   -8.2000  -18.6180   -2.2910 H   0  0  0  0  0  0  0  0  0  0  0
   -6.0300  -17.6150    3.5160 H   0  0  0  0  0  0  0  0  0  0  0
   -5.2240  -17.6820    1.9620 H   0  0  0  0  0  0  0  0  0  0  0
   -7.1570  -19.9250    2.6790 H   0  0  0  0  0  0  0  0  0  0  0
   -7.7940  -18.3360    2.2850 H   0  0  0  0  0  0  0  0  0  0  0
   -6.8390  -17.7100    5.8110 H   0  0  0  0  0  0  0  0  0  0  0
   -5.0810  -17.7890    6.0460 H   0  0  0  0  0  0  0  0  0  0  0
   -5.3680  -19.3070    7.9540 H   0  0  0  0  0  0  0  0  0  0  0
   -6.3270  -17.8310    8.1970 H   0  0  0  0  0  0  0  0  0  0  0
   -6.5100  -21.3810    7.2480 H   0  0  0  0  0  0  0  0  0  0  0
   -8.2680  -21.3550    6.9900 H   0  0  0  0  0  0  0  0  0  0  0
   -8.0170  -19.8630    5.0720 H   0  0  0  0  0  0  0  0  0  0  0
   -7.0070  -21.3030    4.8450 H   0  0  0  0  0  0  0  0  0  0  0
   -8.5900  -20.5010    9.2360 H   0  0  0  0  0  0  0  0  0  0  0
   -6.8340  -20.4980    9.5200 H   0  0  0  0  0  0  0  0  0  0  0
   -7.7810  -19.0090    9.7430 H   0  0  0  0  0  0  0  0  0  0  0
   -4.0100  -19.6870   -3.7330 H   0  0  0  0  0  0  0  0  0  0  0
   -3.6910  -19.1000   -6.1200 H   0  0  0  0  0  0  0  0  0  0  0
   -4.4910  -20.6770   -5.9390 H   0  0  0  0  0  0  0  0  0  0  0
   -5.4450  -19.2460   -6.3870 H   0  0  0  0  0  0  0  0  0  0  0
   -4.0730  -17.2990   -4.4270 H   0  0  0  0  0  0  0  0  0  0  0
   -5.8370  -17.4100   -4.6280 H   0  0  0  0  0  0  0  0  0  0  0
   -5.1090  -17.5960   -3.0170 H   0  0  0  0  0  0  0  0  0  0  0
  1  2  2  0  0  0  0
  2  3  2  0  0  0  0
  2 22  1  0  0  0  0
  2 34  1  0  0  0  0
  4  5  1  0  0  0  0
  4  9  2  0  0  0  0
  5  6  2  0  0  0  0
  5 10  1  0  0  0  0
  6  7  1  0  0  0  0
  7  8  2  0  0  0  0
  7 16  1  0  0  0  0
  8  9  1  0  0  0  0
  8 15  1  0  0  0  0
  9 37  1  0  0  0  0
 10 11  1  0  0  0  0
 10 38  1  0  0  0  0
 11 12  1  0  0  0  0
 11 14  2  0  0  0  0
 12 13  2  0  0  0  0
 12 39  1  0  0  0  0
 13 23  1  0  0  0  0
 13 40  1  0  0  0  0
 14 24  1  0  0  0  0
 14 41  1  0  0  0  0
 16 17  1  0  0  0  0
 16 42  1  0  0  0  0
 17 18  2  0  0  0  0
 17 22  1  0  0  0  0
 18 19  1  0  0  0  0
 18 43  1  0  0  0  0
 19 20  2  0  0  0  0
 19 26  1  0  0  0  0
 20 21  1  0  0  0  0
 20 44  1  0  0  0  0
 21 22  2  0  0  0  0
 21 45  1  0  0  0  0
 23 24  2  0  0  0  0
 23 27  1  0  0  0  0
 24 25  1  0  0  0  0
 25 26  1  0  0  0  0
 25 46  1  0  0  0  0
 25 47  1  0  0  0  0
 26 48  1  0  0  0  0
 26 49  1  0  0  0  0
 27 28  1  0  0  0  0
 27 32  1  0  0  0  0
 28 29  1  0  0  0  0
 28 50  1  0  0  0  0
 28 51  1  0  0  0  0
 29 30  1  0  0  0  0
 29 52  1  0  0  0  0
 29 53  1  0  0  0  0
 30 31  1  0  0  0  0
 30 33  1  0  0  0  0
 31 32  1  0  0  0  0
 31 54  1  0  0  0  0
 31 55  1  0  0  0  0
 32 56  1  0  0  0  0
 32 57  1  0  0  0  0
 33 58  1  0  0  0  0
 33 59  1  0  0  0  0
 33 60  1  0  0  0  0
 34 35  1  0  0  0  0
 34 36  1  0  0  0  0
 34 61  1  0  0  0  0
 35 62  1  0  0  0  0
 35 63  1  0  0  0  0
 35 64  1  0  0  0  0
 36 65  1  0  0  0  0
 36 66  1  0  0  0  0
 36 67  1  0  0  0  0
M  END> <From>
www.bindingDB.org

> <BindingDB Reactant_set_id>
50715478

> <Ligand InChI>
InChI=1S/C26H31ClN6O2S/c1-17(2)36(34,35)24-9-5-18-4-6-19-15-20(7-8-23(19)33-12-10-32(3)11-13-33)29-26-28-16-21(27)25(31-26)30-22(24)14-18/h5,7-9,14-17H,4,6,10-13H2,1-3H3,(H2,28,29,30,31)

> <Ligand InChI Key>
CALYEAJTMOGFMG-UHFFFAOYSA-N

> <BindingDB MonomerID>
50363249

> <BindingDB Ligand Name>
CHEMBL1946800

> <Target Name Assigned by Curator or DataSource>
ALK tyrosine kinase receptor

> <Target Source Organism According to Curator or DataSource>
Homo sapiens

> <Ki (nM)>


> <IC50 (nM)>
 70

> <Kd (nM)>


> <EC50 (nM)>


> <kon (M-1-s-1)>


> <koff (s-1)>


> <pH>


> <Temp C>


> <Curation/DataSource>
ChEMBL

> <Article DOI>
10.1021/jm201333e

> <PMID>
22172029

> <PubChem AID>


> <Patent Number>


> <Authors>
Breslin, HJ; Lane, BM; Ott, GR; Ghose, AK; Angeles, TS; Albom, MS; Cheng, M; Wan, W; Haltiwanger, RC; Wells-Knecht, KJ; Dorsey, BD

> <Institution>
Cephalon, Inc.

> <Link to Ligand in BindingDB>
http://www.bindingdb.org/bind/chemsearch/marvin/MolStructure.jsp?monomerid=50363249

> <Link to Ligand-Target Pair in BindingDB>
http://www.bindingdb.org/jsp/dbsearch/PrimarySearch_ki.jsp?energyterm=kJ/mole&tag=pol&polymerid=5809&target=ALK+tyrosine+kinase+receptor&column=ki&startPg=0&Increment=50&submit=Search

> <Link to Ligand-Target Pair in BindingDB>
http://www.bindingdb.org/jsp/dbsearch/PrimarySearch_ki.jsp?energyterm=kJ/mole&tag=r21&monomerid=50363249&enzyme=ALK+tyrosine+kinase+receptor&column=ki&startPg=0&Increment=50&submit=Search

> <Ligand HET ID in PDB>


> <PDB ID(s) for Ligand-Target Complex>


> <PubChem CID>
56946626

> <PubChem SID>
136967311

> <ChEBI ID of Ligand>


> <ChEMBL ID of Ligand>
CHEMBL1946800

> <DrugBank ID of Ligand>


> <IUPHAR_GRAC ID of Ligand>


> <KEGG ID of Ligand>


> <ZINC ID of Ligand>
ZINC82151210

> <Number of Protein Chains in Target (>1 implies a multichain complex)>
1

> <BindingDB Target Chain Sequence>
MGAIGLLWLLPLLLSTAAVGSGMGTGQRAGSPAAGPPLQPREPLSYSRLQRKSLAVDFVVPSLFRVYARDLLLPPSSSELKAGRPEARGSLALDCAPLLRLLGPAPGVSWTAGSPAPAEARTLSRVLKGGSVRKLRRAKQLVLELGEEAILEGCVGPPGEAAVGLLQFNLSELFSWWIRQGEGRLRIRLMPEKKASEVGREGRLSAAIRASQPRLLFQIFGTGHSSLESPTNMPSPSPDYFTWNLTWIMKDSFPFLSHRSRYGLECSFDFPCELEYSPPLHDLRNQSWSWRRIPSEEASQMDLLDGPGAERSKEMPRGSFLLLNTSADSKHTILSPWMRSSSEHCTLAVSVHRHLQPSGRYIAQLLPHNEAAREILLMPTPGKHGWTVLQGRIGRPDNPFRVALEYISSGNRSLSAVDFFALKNCSEGTSPGSKMALQSSFTCWNGTVLQLGQACDFHQDCAQGEDESQMCRKLPVGFYCNFEDGFCGWTQGTLSPHTPQWQVRTLKDARFQDHQDHALLLSTTDVPASESATVTSATFPAPIKSSPCELRMSWLIRGVLRGNVSLVLVENKTGKEQGRMVWHVAAYEGLSLWQWMVLPLLDVSDRFWLQMVAWWGQGSRAIVAFDNISISLDCYLTISGEDKILQNTAPKSRNLFERNPNKELKPGENSPRQTPIFDPTVHWLFTTCGASGPHGPTQAQCNNAYQNSNLSVEVGSEGPLKGIQIWKVPATDTYSISGYGAAGGKGGKNTMMRSHGVSVLGIFNLEKDDMLYILVGQQGEDACPSTNQLIQKVCIGENNVIEEEIRVNRSVHEWAGGGGGGGGATYVFKMKDGVPVPLIIAAGGGGRAYGAKTDTFHPERLENNSSVLGLNGNSGAAGGGGGWNDNTSLLWAGKSLQEGATGGHSCPQAMKKWGWETRGGFGGGGGGCSSGGGGGGYIGGNAASNNDPEMDGEDGVSFISPLGILYTPALKVMEGHGEVNIKHYLNCSHCEVDECHMDPESHKVICFCDHGTVLAEDGVSCIVSPTPEPHLPLSLILSVVTSALVAALVLAFSGIMIVYRRKHQELQAMQMELQSPEYKLSKLRTSTIMTDYNPNYCFAGKTSSISDLKEVPRKNITLIRGLGHGAFGEVYEGQVSGMPNDPSPLQVAVKTLPEVCSEQDELDFLMEALIISKFNHQNIVRCIGVSLQSLPRFILLELMAGGDLKSFLRETRPRPSQPSSLAMLDLLHVARDIACGCQYLEENHFIHRDIAARNCLLTCPGPGRVAKIGDFGMARDIYRASYYRKGGCAMLPVKWMPPEAFMEGIFTSKTDTWSFGVLLWEIFSLGYMPYPSKSNQEVLEFVTSGGRMDPPKNCPGPVYRIMTQCWQHQPEDRPNFAIILERIEYCTQDPDVINTALPIEYGPLVEEEEKVPVRPKDPEGVPPLLVSQQAKREEERSPAAPPPLPTTSSGKAAKKPTAAEISVRVPRGPAVEGGHVNMAFSQSNPPSELHKVHGSRNKPTSLWNPTYGSWFTEKPTKKNNPIAKKEPHDRGNLGLEGSCTVPPNVATGRLPGASLLLEPSSLTANMKEVPLFRLRHFPCGNVNYGYQQQGLPLEAATAPGAGHYEDTILKSKNSMNQPGP

> <PDB ID(s) of Target Chain>
2XB7,2XBA,3AOX,5FTO,5FTQ,6E0R,6EBW,6EDL,6MX8

> <UniProt (SwissProt) Recommended Name of Target Chain>
ALK tyrosine kinase receptor

> <UniProt (SwissProt) Entry Name of Target Chain>
ALK_HUMAN

> <UniProt (SwissProt) Primary ID of Target Chain>
Q9UM73

> <UniProt (SwissProt) Secondary ID(s) of Target Chain>
Q4ZFX9,Q53QQ6,Q53RZ4,Q59FI3,Q9Y4K6

> <UniProt (SwissProt) Alternative ID(s) of Target Chain>


> <UniProt (TrEMBL) Submitted Name of Target Chain>


> <UniProt (TrEMBL) Entry Name of Target Chain>


> <UniProt (TrEMBL) Primary ID of Target Chain>


> <UniProt (TrEMBL) Secondary ID(s) of Target Chain>


> <UniProt (TrEMBL) Alternative ID(s) of Target Chain>


$$$$
BindingDB_50363251

Vconf v2.0 Academic SN VC001-00000528
 59 63  0  0  0  0  0  0  0  0999 V2000
   15.9220  -21.7460    0.8690 N   0  0  0  0  0  0  0  0  0  0  0
   14.8850  -21.0010    1.3150 C   0  0  0  0  0  0  0  0  0  0  0
   13.8510  -20.7900    0.4700 N   0  0  0  0  0  0  0  0  0  0  0
   13.7760  -21.2830   -0.7890 C   0  0  0  0  0  0  0  0  0  0  0
   14.8420  -22.0810   -1.2500 C   0  0  0  0  0  0  0  0  0  0  0
   15.9260  -22.2840   -0.3760 C   0  0  0  0  0  0  0  0  0  0  0
   14.8800  -20.5290    2.5890 N   0  0  0  0  0  0  0  0  0  0  0
   13.7990  -19.9620    3.1930 C   0  0  0  0  0  0  0  0  0  0  0
   13.4310  -20.4290    4.4700 C   0  0  0  0  0  0  0  0  0  0  0
   12.2480  -19.9720    5.0750 C   0  0  0  0  0  0  0  0  0  0  0
   12.9940  -18.9880    2.5640 C   0  0  0  0  0  0  0  0  0  0  0
   14.8700  -22.7620   -2.8010 Cl  0  0  0  0  0  0  0  0  0  0  0
   12.7100  -20.9840   -1.5890 N   0  0  0  0  0  0  0  0  0  0  0
   11.7180  -20.0820   -1.3290 C   0  0  0  0  0  0  0  0  0  0  0
   11.1810  -19.8230   -0.0470 C   0  0  0  0  0  0  0  0  0  0  0
   10.2570  -18.7810    0.1660 C   0  0  0  0  0  0  0  0  0  0  0
    9.7870  -18.0550   -0.9470 C   0  0  0  0  0  0  0  0  0  0  0
   10.2590  -18.3450   -2.2380 C   0  0  0  0  0  0  0  0  0  0  0
   11.2250  -19.3470   -2.4240 C   0  0  0  0  0  0  0  0  0  0  0
   11.4070  -19.0670    4.4020 C   0  0  0  0  0  0  0  0  0  0  0
   11.7730  -18.5730    3.1300 C   0  0  0  0  0  0  0  0  0  0  0
   10.8790  -17.6750    2.3620 C   0  0  0  0  0  0  0  0  0  0  0
    9.8070  -18.4320    1.5330 C   0  0  0  0  0  0  0  0  0  0  0
   10.2460  -18.6920    4.9930 N   0  0  0  0  0  0  0  0  0  0  0
   10.1820  -17.5450    5.8370 C   0  0  0  0  0  0  0  0  0  0  0
    9.6710  -17.9740    7.2210 C   0  0  0  0  0  0  0  0  0  0  0
    8.3820  -18.6830    7.0880 N   0  0  0  0  0  0  0  0  0  0  0
    8.5470  -19.8740    6.2310 C   0  0  0  0  0  0  0  0  0  0  0
    9.0560  -19.4600    4.8410 C   0  0  0  0  0  0  0  0  0  0  0
    7.8920  -19.0860    8.4170 C   0  0  0  0  0  0  0  0  0  0  0
   14.1960  -21.3470    5.1170 O   0  0  0  0  0  0  0  0  0  0  0
   13.9300  -22.7290    4.8690 C   0  0  0  0  0  0  0  0  0  0  0
   16.7290  -22.8420   -0.6710 H   0  0  0  0  0  0  0  0  0  0  0
   15.6420  -20.7470    3.1470 H   0  0  0  0  0  0  0  0  0  0  0
   11.9840  -20.3230    5.9970 H   0  0  0  0  0  0  0  0  0  0  0
   13.2650  -18.6260    1.6490 H   0  0  0  0  0  0  0  0  0  0  0
   12.7210  -21.3670   -2.4790 H   0  0  0  0  0  0  0  0  0  0  0
   11.4820  -20.3810    0.7500 H   0  0  0  0  0  0  0  0  0  0  0
    9.1070  -17.3050   -0.8180 H   0  0  0  0  0  0  0  0  0  0  0
    9.9140  -17.8130   -3.0380 H   0  0  0  0  0  0  0  0  0  0  0
   11.5840  -19.5260   -3.3630 H   0  0  0  0  0  0  0  0  0  0  0
   10.3620  -17.0150    3.0600 H   0  0  0  0  0  0  0  0  0  0  0
   11.4670  -17.0330    1.7020 H   0  0  0  0  0  0  0  0  0  0  0
    9.4860  -19.3360    2.0530 H   0  0  0  0  0  0  0  0  0  0  0
    8.9370  -17.7750    1.4660 H   0  0  0  0  0  0  0  0  0  0  0
    9.4830  -16.8250    5.4080 H   0  0  0  0  0  0  0  0  0  0  0
   11.1560  -17.0640    5.9470 H   0  0  0  0  0  0  0  0  0  0  0
   10.4120  -18.6240    7.6910 H   0  0  0  0  0  0  0  0  0  0  0
    9.5390  -17.0830    7.8370 H   0  0  0  0  0  0  0  0  0  0  0
    9.2610  -20.5670    6.6810 H   0  0  0  0  0  0  0  0  0  0  0
    7.5870  -20.3800    6.1160 H   0  0  0  0  0  0  0  0  0  0  0
    8.2970  -18.8480    4.3520 H   0  0  0  0  0  0  0  0  0  0  0
    9.2230  -20.3570    4.2410 H   0  0  0  0  0  0  0  0  0  0  0
    6.9300  -19.5890    8.3160 H   0  0  0  0  0  0  0  0  0  0  0
    8.6010  -19.7620    8.8970 H   0  0  0  0  0  0  0  0  0  0  0
    7.7600  -18.2030    9.0430 H   0  0  0  0  0  0  0  0  0  0  0
   14.6270  -23.3320    5.4510 H   0  0  0  0  0  0  0  0  0  0  0
   12.9110  -22.9780    5.1700 H   0  0  0  0  0  0  0  0  0  0  0
   14.0630  -22.9600    3.8110 H   0  0  0  0  0  0  0  0  0  0  0
  1  2  1  0  0  0  0
  1  6  2  0  0  0  0
  2  3  2  0  0  0  0
  2  7  1  0  0  0  0
  3  4  1  0  0  0  0
  4  5  2  0  0  0  0
  4 13  1  0  0  0  0
  5  6  1  0  0  0  0
  5 12  1  0  0  0  0
  6 33  1  0  0  0  0
  7  8  1  0  0  0  0
  7 34  1  0  0  0  0
  8  9  1  0  0  0  0
  8 11  2  0  0  0  0
  9 10  2  0  0  0  0
  9 31  1  0  0  0  0
 10 20  1  0  0  0  0
 10 35  1  0  0  0  0
 11 21  1  0  0  0  0
 11 36  1  0  0  0  0
 13 14  1  0  0  0  0
 13 37  1  0  0  0  0
 14 15  2  0  0  0  0
 14 19  1  0  0  0  0
 15 16  1  0  0  0  0
 15 38  1  0  0  0  0
 16 17  2  0  0  0  0
 16 23  1  0  0  0  0
 17 18  1  0  0  0  0
 17 39  1  0  0  0  0
 18 19  2  0  0  0  0
 18 40  1  0  0  0  0
 19 41  1  0  0  0  0
 20 21  2  0  0  0  0
 20 24  1  0  0  0  0
 21 22  1  0  0  0  0
 22 23  1  0  0  0  0
 22 42  1  0  0  0  0
 22 43  1  0  0  0  0
 23 44  1  0  0  0  0
 23 45  1  0  0  0  0
 24 25  1  0  0  0  0
 24 29  1  0  0  0  0
 25 26  1  0  0  0  0
 25 46  1  0  0  0  0
 25 47  1  0  0  0  0
 26 27  1  0  0  0  0
 26 48  1  0  0  0  0
 26 49  1  0  0  0  0
 27 28  1  0  0  0  0
 27 30  1  0  0  0  0
 28 29  1  0  0  0  0
 28 50  1  0  0  0  0
 28 51  1  0  0  0  0
 29 52  1  0  0  0  0
 29 53  1  0  0  0  0
 30 54  1  0  0  0  0
 30 55  1  0  0  0  0
 30 56  1  0  0  0  0
 31 32  1  0  0  0  0
 32 57  1  0  0  0  0
 32 58  1  0  0  0  0
 32 59  1  0  0  0  0
M  END> <From>
www.bindingDB.org

> <BindingDB Reactant_set_id>
50715480

> <Ligand InChI>
InChI=1S/C24H27ClN6O/c1-30-8-10-31(11-9-30)21-14-22(32-2)20-13-17(21)7-6-16-4-3-5-18(12-16)27-23-19(25)15-26-24(28-20)29-23/h3-5,12-15H,6-11H2,1-2H3,(H2,26,27,28,29)

> <Ligand InChI Key>
PVXFLFNVDPFZIO-UHFFFAOYSA-N

> <BindingDB MonomerID>
50363251

> <BindingDB Ligand Name>
CHEMBL1946802

> <Target Name Assigned by Curator or DataSource>
ALK tyrosine kinase receptor

> <Target Source Organism According to Curator or DataSource>
Homo sapiens

> <Ki (nM)>


> <IC50 (nM)>
 800

> <Kd (nM)>


> <EC50 (nM)>


> <kon (M-1-s-1)>


> <koff (s-1)>


> <pH>


> <Temp C>


> <Curation/DataSource>
ChEMBL

> <Article DOI>
10.1021/jm201333e

> <PMID>
22172029

> <PubChem AID>


> <Patent Number>


> <Authors>
Breslin, HJ; Lane, BM; Ott, GR; Ghose, AK; Angeles, TS; Albom, MS; Cheng, M; Wan, W; Haltiwanger, RC; Wells-Knecht, KJ; Dorsey, BD

> <Institution>
Cephalon, Inc.

> <Link to Ligand in BindingDB>
http://www.bindingdb.org/bind/chemsearch/marvin/MolStructure.jsp?monomerid=50363251

> <Link to Ligand-Target Pair in BindingDB>
http://www.bindingdb.org/jsp/dbsearch/PrimarySearch_ki.jsp?energyterm=kJ/mole&tag=pol&polymerid=5809&target=ALK+tyrosine+kinase+receptor&column=ki&startPg=0&Increment=50&submit=Search

> <Link to Ligand-Target Pair in BindingDB>
http://www.bindingdb.org/jsp/dbsearch/PrimarySearch_ki.jsp?energyterm=kJ/mole&tag=r21&monomerid=50363251&enzyme=ALK+tyrosine+kinase+receptor&column=ki&startPg=0&Increment=50&submit=Search

> <Ligand HET ID in PDB>


> <PDB ID(s) for Ligand-Target Complex>


> <PubChem CID>
56946732

> <PubChem SID>
136967313

> <ChEBI ID of Ligand>


> <ChEMBL ID of Ligand>
CHEMBL1946802

> <DrugBank ID of Ligand>


> <IUPHAR_GRAC ID of Ligand>


> <KEGG ID of Ligand>


> <ZINC ID of Ligand>
ZINC73198571

> <Number of Protein Chains in Target (>1 implies a multichain complex)>
1

> <BindingDB Target Chain Sequence>
MGAIGLLWLLPLLLSTAAVGSGMGTGQRAGSPAAGPPLQPREPLSYSRLQRKSLAVDFVVPSLFRVYARDLLLPPSSSELKAGRPEARGSLALDCAPLLRLLGPAPGVSWTAGSPAPAEARTLSRVLKGGSVRKLRRAKQLVLELGEEAILEGCVGPPGEAAVGLLQFNLSELFSWWIRQGEGRLRIRLMPEKKASEVGREGRLSAAIRASQPRLLFQIFGTGHSSLESPTNMPSPSPDYFTWNLTWIMKDSFPFLSHRSRYGLECSFDFPCELEYSPPLHDLRNQSWSWRRIPSEEASQMDLLDGPGAERSKEMPRGSFLLLNTSADSKHTILSPWMRSSSEHCTLAVSVHRHLQPSGRYIAQLLPHNEAAREILLMPTPGKHGWTVLQGRIGRPDNPFRVALEYISSGNRSLSAVDFFALKNCSEGTSPGSKMALQSSFTCWNGTVLQLGQACDFHQDCAQGEDESQMCRKLPVGFYCNFEDGFCGWTQGTLSPHTPQWQVRTLKDARFQDHQDHALLLSTTDVPASESATVTSATFPAPIKSSPCELRMSWLIRGVLRGNVSLVLVENKTGKEQGRMVWHVAAYEGLSLWQWMVLPLLDVSDRFWLQMVAWWGQGSRAIVAFDNISISLDCYLTISGEDKILQNTAPKSRNLFERNPNKELKPGENSPRQTPIFDPTVHWLFTTCGASGPHGPTQAQCNNAYQNSNLSVEVGSEGPLKGIQIWKVPATDTYSISGYGAAGGKGGKNTMMRSHGVSVLGIFNLEKDDMLYILVGQQGEDACPSTNQLIQKVCIGENNVIEEEIRVNRSVHEWAGGGGGGGGATYVFKMKDGVPVPLIIAAGGGGRAYGAKTDTFHPERLENNSSVLGLNGNSGAAGGGGGWNDNTSLLWAGKSLQEGATGGHSCPQAMKKWGWETRGGFGGGGGGCSSGGGGGGYIGGNAASNNDPEMDGEDGVSFISPLGILYTPALKVMEGHGEVNIKHYLNCSHCEVDECHMDPESHKVICFCDHGTVLAEDGVSCIVSPTPEPHLPLSLILSVVTSALVAALVLAFSGIMIVYRRKHQELQAMQMELQSPEYKLSKLRTSTIMTDYNPNYCFAGKTSSISDLKEVPRKNITLIRGLGHGAFGEVYEGQVSGMPNDPSPLQVAVKTLPEVCSEQDELDFLMEALIISKFNHQNIVRCIGVSLQSLPRFILLELMAGGDLKSFLRETRPRPSQPSSLAMLDLLHVARDIACGCQYLEENHFIHRDIAARNCLLTCPGPGRVAKIGDFGMARDIYRASYYRKGGCAMLPVKWMPPEAFMEGIFTSKTDTWSFGVLLWEIFSLGYMPYPSKSNQEVLEFVTSGGRMDPPKNCPGPVYRIMTQCWQHQPEDRPNFAIILERIEYCTQDPDVINTALPIEYGPLVEEEEKVPVRPKDPEGVPPLLVSQQAKREEERSPAAPPPLPTTSSGKAAKKPTAAEISVRVPRGPAVEGGHVNMAFSQSNPPSELHKVHGSRNKPTSLWNPTYGSWFTEKPTKKNNPIAKKEPHDRGNLGLEGSCTVPPNVATGRLPGASLLLEPSSLTANMKEVPLFRLRHFPCGNVNYGYQQQGLPLEAATAPGAGHYEDTILKSKNSMNQPGP

> <PDB ID(s) of Target Chain>
2XB7,2XBA,3AOX,5FTO,5FTQ,6E0R,6EBW,6EDL,6MX8

> <UniProt (SwissProt) Recommended Name of Target Chain>
ALK tyrosine kinase receptor

> <UniProt (SwissProt) Entry Name of Target Chain>
ALK_HUMAN

> <UniProt (SwissProt) Primary ID of Target Chain>
Q9UM73

> <UniProt (SwissProt) Secondary ID(s) of Target Chain>
Q4ZFX9,Q53QQ6,Q53RZ4,Q59FI3,Q9Y4K6

> <UniProt (SwissProt) Alternative ID(s) of Target Chain>


> <UniProt (TrEMBL) Submitted Name of Target Chain>


> <UniProt (TrEMBL) Entry Name of Target Chain>


> <UniProt (TrEMBL) Primary ID of Target Chain>


> <UniProt (TrEMBL) Secondary ID(s) of Target Chain>


> <UniProt (TrEMBL) Alternative ID(s) of Target Chain>


$$$$
BindingDB_50363252

Vconf v2.0 Academic SN VC001-00000528
 71 75  0  0  0  0  0  0  0  0999 V2000
   13.4830  -23.1170   -3.3440 O   0  0  0  0  0  0  0  0  0  0  0
   14.8480  -22.4670   -2.8480 S   0  0  0  0  0  0  0  0  0  0  0
   15.9640  -21.9860   -3.8750 O   0  0  0  0  0  0  0  0  0  0  0
   20.3610  -19.8340    0.4500 N   0  0  0  0  0  0  0  0  0  0  0
   19.9970  -21.0510    0.9140 C   0  0  0  0  0  0  0  0  0  0  0
   19.0470  -21.7260    0.2260 N   0  0  0  0  0  0  0  0  0  0  0
   18.4320  -21.2710   -0.8910 C   0  0  0  0  0  0  0  0  0  0  0
   18.8140  -20.0050   -1.3780 C   0  0  0  0  0  0  0  0  0  0  0
   19.8040  -19.3020   -0.6660 C   0  0  0  0  0  0  0  0  0  0  0
   20.5880  -21.5700    2.0230 N   0  0  0  0  0  0  0  0  0  0  0
   20.3910  -22.8390    2.4790 C   0  0  0  0  0  0  0  0  0  0  0
   21.5200  -23.6270    2.7790 C   0  0  0  0  0  0  0  0  0  0  0
   21.3470  -24.9930    3.0870 C   0  0  0  0  0  0  0  0  0  0  0
   19.1030  -23.4080    2.5790 C   0  0  0  0  0  0  0  0  0  0  0
   18.1140  -19.3040   -2.7530 Cl  0  0  0  0  0  0  0  0  0  0  0
   17.4210  -21.9760   -1.4820 N   0  0  0  0  0  0  0  0  0  0  0
   16.8680  -23.1770   -1.1200 C   0  0  0  0  0  0  0  0  0  0  0
   17.4420  -24.0830   -0.1980 C   0  0  0  0  0  0  0  0  0  0  0
   16.7510  -25.2170    0.2690 C   0  0  0  0  0  0  0  0  0  0  0
   15.4880  -25.5040   -0.2800 C   0  0  0  0  0  0  0  0  0  0  0
   14.9350  -24.6680   -1.2640 C   0  0  0  0  0  0  0  0  0  0  0
   15.6160  -23.5100   -1.6840 C   0  0  0  0  0  0  0  0  0  0  0
   20.0680  -25.5790    3.0720 C   0  0  0  0  0  0  0  0  0  0  0
   18.9300  -24.7860    2.8040 C   0  0  0  0  0  0  0  0  0  0  0
   17.5790  -25.3840    2.6750 C   0  0  0  0  0  0  0  0  0  0  0
   17.3470  -26.0900    1.3100 C   0  0  0  0  0  0  0  0  0  0  0
   22.7460  -23.0230    2.7210 O   0  0  0  0  0  0  0  0  0  0  0
   23.9630  -23.7080    3.0290 C   0  0  0  0  0  0  0  0  0  0  0
   14.3690  -20.9580   -1.9760 C   0  0  0  0  0  0  0  0  0  0  0
   13.7800  -19.9560   -2.9790 C   0  0  0  0  0  0  0  0  0  0  0
   13.3410  -21.2680   -0.8770 C   0  0  0  0  0  0  0  0  0  0  0
   19.9570  -26.9110    3.3090 N   0  0  0  0  0  0  0  0  0  0  0
   19.6310  -27.4090    4.6030 C   0  0  0  0  0  0  0  0  0  0  0
   20.7480  -28.3560    5.0700 C   0  0  0  0  0  0  0  0  0  0  0
   20.9650  -29.4180    4.0660 N   0  0  0  0  0  0  0  0  0  0  0
   21.3370  -28.8170    2.7690 C   0  0  0  0  0  0  0  0  0  0  0
   20.2250  -27.8710    2.2900 C   0  0  0  0  0  0  0  0  0  0  0
   22.0290  -30.3300    4.5200 C   0  0  0  0  0  0  0  0  0  0  0
   20.1100  -18.3810   -0.9810 H   0  0  0  0  0  0  0  0  0  0  0
   21.2880  -21.0460    2.4420 H   0  0  0  0  0  0  0  0  0  0  0
   22.1590  -25.5760    3.2930 H   0  0  0  0  0  0  0  0  0  0  0
   18.2830  -22.8290    2.3910 H   0  0  0  0  0  0  0  0  0  0  0
   16.9890  -21.5230   -2.2220 H   0  0  0  0  0  0  0  0  0  0  0
   18.3840  -23.9310    0.1420 H   0  0  0  0  0  0  0  0  0  0  0
   14.9690  -26.3260    0.0300 H   0  0  0  0  0  0  0  0  0  0  0
   14.0220  -24.8940   -1.6590 H   0  0  0  0  0  0  0  0  0  0  0
   17.4500  -26.1200    3.4700 H   0  0  0  0  0  0  0  0  0  0  0
   16.8110  -24.6220    2.8230 H   0  0  0  0  0  0  0  0  0  0  0
   18.2860  -26.4970    0.9290 H   0  0  0  0  0  0  0  0  0  0  0
   16.6810  -26.9350    1.4950 H   0  0  0  0  0  0  0  0  0  0  0
   24.7950  -23.0110    2.9220 H   0  0  0  0  0  0  0  0  0  0  0
   23.9400  -24.0750    4.0560 H   0  0  0  0  0  0  0  0  0  0  0
   24.1120  -24.5430    2.3430 H   0  0  0  0  0  0  0  0  0  0  0
   15.2510  -20.5120   -1.5170 H   0  0  0  0  0  0  0  0  0  0  0
   13.4930  -19.0400   -2.4620 H   0  0  0  0  0  0  0  0  0  0  0
   14.5280  -19.7200   -3.7360 H   0  0  0  0  0  0  0  0  0  0  0
   12.9050  -20.3910   -3.4620 H   0  0  0  0  0  0  0  0  0  0  0
   13.0480  -20.3450   -0.3770 H   0  0  0  0  0  0  0  0  0  0  0
   12.4600  -21.7360   -1.3180 H   0  0  0  0  0  0  0  0  0  0  0
   13.7800  -21.9460   -0.1450 H   0  0  0  0  0  0  0  0  0  0  0
   18.6950  -27.9670    4.5460 H   0  0  0  0  0  0  0  0  0  0  0
   19.5150  -26.6050    5.3330 H   0  0  0  0  0  0  0  0  0  0  0
   21.6650  -27.7830    5.2180 H   0  0  0  0  0  0  0  0  0  0  0
   20.4530  -28.8050    6.0200 H   0  0  0  0  0  0  0  0  0  0  0
   22.2680  -28.2560    2.8650 H   0  0  0  0  0  0  0  0  0  0  0
   21.4710  -29.6040    2.0250 H   0  0  0  0  0  0  0  0  0  0  0
   19.3210  -28.4530    2.1040 H   0  0  0  0  0  0  0  0  0  0  0
   20.5350  -27.3990    1.3550 H   0  0  0  0  0  0  0  0  0  0  0
   22.1790  -31.1170    3.7800 H   0  0  0  0  0  0  0  0  0  0  0
   22.9650  -29.7860    4.6590 H   0  0  0  0  0  0  0  0  0  0  0
   21.7380  -30.7910    5.4650 H   0  0  0  0  0  0  0  0  0  0  0
  1  2  2  0  0  0  0
  2  3  2  0  0  0  0
  2 22  1  0  0  0  0
  2 29  1  0  0  0  0
  4  5  1  0  0  0  0
  4  9  2  0  0  0  0
  5  6  2  0  0  0  0
  5 10  1  0  0  0  0
  6  7  1  0  0  0  0
  7  8  2  0  0  0  0
  7 16  1  0  0  0  0
  8  9  1  0  0  0  0
  8 15  1  0  0  0  0
  9 39  1  0  0  0  0
 10 11  1  0  0  0  0
 10 40  1  0  0  0  0
 11 12  1  0  0  0  0
 11 14  2  0  0  0  0
 12 13  2  0  0  0  0
 12 27  1  0  0  0  0
 13 23  1  0  0  0  0
 13 41  1  0  0  0  0
 14 24  1  0  0  0  0
 14 42  1  0  0  0  0
 16 17  1  0  0  0  0
 16 43  1  0  0  0  0
 17 18  2  0  0  0  0
 17 22  1  0  0  0  0
 18 19  1  0  0  0  0
 18 44  1  0  0  0  0
 19 20  2  0  0  0  0
 19 26  1  0  0  0  0
 20 21  1  0  0  0  0
 20 45  1  0  0  0  0
 21 22  2  0  0  0  0
 21 46  1  0  0  0  0
 23 24  2  0  0  0  0
 23 32  1  0  0  0  0
 24 25  1  0  0  0  0
 25 26  1  0  0  0  0
 25 47  1  0  0  0  0
 25 48  1  0  0  0  0
 26 49  1  0  0  0  0
 26 50  1  0  0  0  0
 27 28  1  0  0  0  0
 28 51  1  0  0  0  0
 28 52  1  0  0  0  0
 28 53  1  0  0  0  0
 29 30  1  0  0  0  0
 29 31  1  0  0  0  0
 29 54  1  0  0  0  0
 30 55  1  0  0  0  0
 30 56  1  0  0  0  0
 30 57  1  0  0  0  0
 31 58  1  0  0  0  0
 31 59  1  0  0  0  0
 31 60  1  0  0  0  0
 32 33  1  0  0  0  0
 32 37  1  0  0  0  0
 33 34  1  0  0  0  0
 33 61  1  0  0  0  0
 33 62  1  0  0  0  0
 34 35  1  0  0  0  0
 34 63  1  0  0  0  0
 34 64  1  0  0  0  0
 35 36  1  0  0  0  0
 35 38  1  0  0  0  0
 36 37  1  0  0  0  0
 36 65  1  0  0  0  0
 36 66  1  0  0  0  0
 37 67  1  0  0  0  0
 37 68  1  0  0  0  0
 38 69  1  0  0  0  0
 38 70  1  0  0  0  0
 38 71  1  0  0  0  0
M  END> <From>
www.bindingDB.org

> <BindingDB Reactant_set_id>
50715481

> <Ligand InChI>
InChI=1S/C27H33ClN6O3S/c1-17(2)38(35,36)25-8-6-18-5-7-19-14-21(24(37-4)15-23(19)34-11-9-33(3)10-12-34)31-27-29-16-20(28)26(32-27)30-22(25)13-18/h6,8,13-17H,5,7,9-12H2,1-4H3,(H2,29,30,31,32)

> <Ligand InChI Key>
KABKBCZNMKYISM-UHFFFAOYSA-N

> <BindingDB MonomerID>
50363252

> <BindingDB Ligand Name>
CHEMBL1946803

> <Target Name Assigned by Curator or DataSource>
ALK tyrosine kinase receptor

> <Target Source Organism According to Curator or DataSource>
Homo sapiens

> <Ki (nM)>


> <IC50 (nM)>
 30

> <Kd (nM)>


> <EC50 (nM)>


> <kon (M-1-s-1)>


> <koff (s-1)>


> <pH>


> <Temp C>


> <Curation/DataSource>
ChEMBL

> <Article DOI>
10.1021/jm201333e

> <PMID>
22172029

> <PubChem AID>


> <Patent Number>


> <Authors>
Breslin, HJ; Lane, BM; Ott, GR; Ghose, AK; Angeles, TS; Albom, MS; Cheng, M; Wan, W; Haltiwanger, RC; Wells-Knecht, KJ; Dorsey, BD

> <Institution>
Cephalon, Inc.

> <Link to Ligand in BindingDB>
http://www.bindingdb.org/bind/chemsearch/marvin/MolStructure.jsp?monomerid=50363252

> <Link to Ligand-Target Pair in BindingDB>
http://www.bindingdb.org/jsp/dbsearch/PrimarySearch_ki.jsp?energyterm=kJ/mole&tag=pol&polymerid=5809&target=ALK+tyrosine+kinase+receptor&column=ki&startPg=0&Increment=50&submit=Search

> <Link to Ligand-Target Pair in BindingDB>
http://www.bindingdb.org/jsp/dbsearch/PrimarySearch_ki.jsp?energyterm=kJ/mole&tag=r21&monomerid=50363252&enzyme=ALK+tyrosine+kinase+receptor&column=ki&startPg=0&Increment=50&submit=Search

> <Ligand HET ID in PDB>


> <PDB ID(s) for Ligand-Target Complex>


> <PubChem CID>
56946734

> <PubChem SID>
136967314

> <ChEBI ID of Ligand>


> <ChEMBL ID of Ligand>
CHEMBL1946803

> <DrugBank ID of Ligand>


> <IUPHAR_GRAC ID of Ligand>


> <KEGG ID of Ligand>


> <ZINC ID of Ligand>
ZINC73197432

> <Number of Protein Chains in Target (>1 implies a multichain complex)>
1

> <BindingDB Target Chain Sequence>
MGAIGLLWLLPLLLSTAAVGSGMGTGQRAGSPAAGPPLQPREPLSYSRLQRKSLAVDFVVPSLFRVYARDLLLPPSSSELKAGRPEARGSLALDCAPLLRLLGPAPGVSWTAGSPAPAEARTLSRVLKGGSVRKLRRAKQLVLELGEEAILEGCVGPPGEAAVGLLQFNLSELFSWWIRQGEGRLRIRLMPEKKASEVGREGRLSAAIRASQPRLLFQIFGTGHSSLESPTNMPSPSPDYFTWNLTWIMKDSFPFLSHRSRYGLECSFDFPCELEYSPPLHDLRNQSWSWRRIPSEEASQMDLLDGPGAERSKEMPRGSFLLLNTSADSKHTILSPWMRSSSEHCTLAVSVHRHLQPSGRYIAQLLPHNEAAREILLMPTPGKHGWTVLQGRIGRPDNPFRVALEYISSGNRSLSAVDFFALKNCSEGTSPGSKMALQSSFTCWNGTVLQLGQACDFHQDCAQGEDESQMCRKLPVGFYCNFEDGFCGWTQGTLSPHTPQWQVRTLKDARFQDHQDHALLLSTTDVPASESATVTSATFPAPIKSSPCELRMSWLIRGVLRGNVSLVLVENKTGKEQGRMVWHVAAYEGLSLWQWMVLPLLDVSDRFWLQMVAWWGQGSRAIVAFDNISISLDCYLTISGEDKILQNTAPKSRNLFERNPNKELKPGENSPRQTPIFDPTVHWLFTTCGASGPHGPTQAQCNNAYQNSNLSVEVGSEGPLKGIQIWKVPATDTYSISGYGAAGGKGGKNTMMRSHGVSVLGIFNLEKDDMLYILVGQQGEDACPSTNQLIQKVCIGENNVIEEEIRVNRSVHEWAGGGGGGGGATYVFKMKDGVPVPLIIAAGGGGRAYGAKTDTFHPERLENNSSVLGLNGNSGAAGGGGGWNDNTSLLWAGKSLQEGATGGHSCPQAMKKWGWETRGGFGGGGGGCSSGGGGGGYIGGNAASNNDPEMDGEDGVSFISPLGILYTPALKVMEGHGEVNIKHYLNCSHCEVDECHMDPESHKVICFCDHGTVLAEDGVSCIVSPTPEPHLPLSLILSVVTSALVAALVLAFSGIMIVYRRKHQELQAMQMELQSPEYKLSKLRTSTIMTDYNPNYCFAGKTSSISDLKEVPRKNITLIRGLGHGAFGEVYEGQVSGMPNDPSPLQVAVKTLPEVCSEQDELDFLMEALIISKFNHQNIVRCIGVSLQSLPRFILLELMAGGDLKSFLRETRPRPSQPSSLAMLDLLHVARDIACGCQYLEENHFIHRDIAARNCLLTCPGPGRVAKIGDFGMARDIYRASYYRKGGCAMLPVKWMPPEAFMEGIFTSKTDTWSFGVLLWEIFSLGYMPYPSKSNQEVLEFVTSGGRMDPPKNCPGPVYRIMTQCWQHQPEDRPNFAIILERIEYCTQDPDVINTALPIEYGPLVEEEEKVPVRPKDPEGVPPLLVSQQAKREEERSPAAPPPLPTTSSGKAAKKPTAAEISVRVPRGPAVEGGHVNMAFSQSNPPSELHKVHGSRNKPTSLWNPTYGSWFTEKPTKKNNPIAKKEPHDRGNLGLEGSCTVPPNVATGRLPGASLLLEPSSLTANMKEVPLFRLRHFPCGNVNYGYQQQGLPLEAATAPGAGHYEDTILKSKNSMNQPGP

> <PDB ID(s) of Target Chain>
2XB7,2XBA,3AOX,5FTO,5FTQ,6E0R,6EBW,6EDL,6MX8

> <UniProt (SwissProt) Recommended Name of Target Chain>
ALK tyrosine kinase receptor

> <UniProt (SwissProt) Entry Name of Target Chain>
ALK_HUMAN

> <UniProt (SwissProt) Primary ID of Target Chain>
Q9UM73

> <UniProt (SwissProt) Secondary ID(s) of Target Chain>
Q4ZFX9,Q53QQ6,Q53RZ4,Q59FI3,Q9Y4K6

> <UniProt (SwissProt) Alternative ID(s) of Target Chain>


> <UniProt (TrEMBL) Submitted Name of Target Chain>


> <UniProt (TrEMBL) Entry Name of Target Chain>


> <UniProt (TrEMBL) Primary ID of Target Chain>


> <UniProt (TrEMBL) Secondary ID(s) of Target Chain>


> <UniProt (TrEMBL) Alternative ID(s) of Target Chain>


$$$$
BindingDB_50385591_mol_1

Vconf v2.0 Academic SN VC001-00000579
 66 69  0  0  0  0  0  0  0  0999 V2000
    5.0300  -18.1670   -2.7360 S   0  0  0  0  0  0  0  0  0  0  0
    5.8960  -19.3320   -2.0860 O   0  0  0  0  0  0  0  0  0  0  0
    5.7110  -16.7970   -3.1740 O   0  0  0  0  0  0  0  0  0  0  0
   -3.3810  -18.0350    1.1240 N   0  0  0  0  0  0  0  0  0  0  0
   -4.7390  -18.0950    1.3320 C   0  0  0  0  0  0  0  0  0  0  0
   -5.4610  -19.3770    1.4240 C   0  0  0  0  0  0  0  0  0  0  0
   -4.1280  -20.1070   -0.7070 C   0  0  0  0  0  0  0  0  0  0  0
   -5.4510  -20.1590    0.0900 C   0  0  0  0  0  0  0  0  0  0  0
   -2.7320  -16.7640    0.9290 C   0  0  0  0  0  0  0  0  0  0  0
   -5.4210  -17.0500    1.4240 O   0  0  0  0  0  0  0  0  0  0  0
   -2.6230  -19.1800    1.0640 C   0  0  0  0  0  0  0  0  0  0  0
   -2.9380  -20.2210    0.1590 C   0  0  0  0  0  0  0  0  0  0  0
   -2.1130  -21.3590    0.0850 C   0  0  0  0  0  0  0  0  0  0  0
   -0.9760  -21.4740    0.9030 C   0  0  0  0  0  0  0  0  0  0  0
   -0.6730  -20.4610    1.8370 C   0  0  0  0  0  0  0  0  0  0  0
   -1.5020  -19.3230    1.9070 C   0  0  0  0  0  0  0  0  0  0  0
   -0.1870  -22.5650    0.7600 N   0  0  0  0  0  0  0  0  0  0  0
    1.0520  -22.5270    0.2140 C   0  0  0  0  0  0  0  0  0  0  0
    1.6270  -21.3730   -0.2040 N   0  0  0  0  0  0  0  0  0  0  0
    2.8580  -21.3050   -0.7690 C   0  0  0  0  0  0  0  0  0  0  0
    3.5750  -22.5090   -0.9420 C   0  0  0  0  0  0  0  0  0  0  0
    2.9700  -23.7000   -0.5030 C   0  0  0  0  0  0  0  0  0  0  0
    1.7390  -23.6790    0.0580 N   0  0  0  0  0  0  0  0  0  0  0
    5.1220  -22.5780   -1.6300 Cl  0  0  0  0  0  0  0  0  0  0  0
    3.3940  -20.1210   -1.1920 N   0  0  0  0  0  0  0  0  0  0  0
    4.3690  -18.7680   -4.1700 N   0  0  0  0  0  0  0  0  0  0  0
   -2.2050  -16.6270   -0.5080 C   0  0  0  0  0  0  0  0  0  0  0
    1.8350  -18.4560   -0.2470 C   0  0  0  0  0  0  0  0  0  0  0
    2.9440  -18.8350   -1.0420 C   0  0  0  0  0  0  0  0  0  0  0
    3.6630  -17.8140   -1.7130 C   0  0  0  0  0  0  0  0  0  0  0
    3.2610  -16.4690   -1.5970 C   0  0  0  0  0  0  0  0  0  0  0
    2.1570  -16.1170   -0.8090 C   0  0  0  0  0  0  0  0  0  0  0
    1.4440  -17.1130   -0.1300 C   0  0  0  0  0  0  0  0  0  0  0
    4.5350  -20.1390   -4.4960 C   0  0  0  0  0  0  0  0  0  0  0
    3.6770  -17.8780   -5.0350 C   0  0  0  0  0  0  0  0  0  0  0
    0.4320  -20.6300    2.6240 O   0  0  0  0  0  0  0  0  0  0  0
    0.9100  -19.6220    3.5180 C   0  0  0  0  0  0  0  0  0  0  0
   -5.0040  -19.9860    2.2050 H   0  0  0  0  0  0  0  0  0  0  0
   -6.4990  -19.1910    1.7020 H   0  0  0  0  0  0  0  0  0  0  0
   -4.1480  -20.9130   -1.4440 H   0  0  0  0  0  0  0  0  0  0  0
   -4.0770  -19.1630   -1.2520 H   0  0  0  0  0  0  0  0  0  0  0
   -5.6860  -21.2010    0.3100 H   0  0  0  0  0  0  0  0  0  0  0
   -6.2410  -19.7630   -0.5500 H   0  0  0  0  0  0  0  0  0  0  0
   -3.4120  -15.9290    1.1060 H   0  0  0  0  0  0  0  0  0  0  0
   -1.8990  -16.6490    1.6240 H   0  0  0  0  0  0  0  0  0  0  0
   -2.3340  -22.1030   -0.5790 H   0  0  0  0  0  0  0  0  0  0  0
   -1.2830  -18.5840    2.5750 H   0  0  0  0  0  0  0  0  0  0  0
   -0.5470  -23.4290    1.0080 H   0  0  0  0  0  0  0  0  0  0  0
    3.4540  -24.5930   -0.6020 H   0  0  0  0  0  0  0  0  0  0  0
    4.2270  -20.2120   -1.6760 H   0  0  0  0  0  0  0  0  0  0  0
   -1.7350  -15.6510   -0.6300 H   0  0  0  0  0  0  0  0  0  0  0
   -1.4720  -17.4050   -0.7190 H   0  0  0  0  0  0  0  0  0  0  0
   -3.0350  -16.7150   -1.2110 H   0  0  0  0  0  0  0  0  0  0  0
    1.3040  -19.1430    0.2780 H   0  0  0  0  0  0  0  0  0  0  0
    3.7750  -15.7390   -2.0920 H   0  0  0  0  0  0  0  0  0  0  0
    1.8750  -15.1390   -0.7290 H   0  0  0  0  0  0  0  0  0  0  0
    0.6450  -16.8630    0.4520 H   0  0  0  0  0  0  0  0  0  0  0
    4.1130  -20.3670   -5.4760 H   0  0  0  0  0  0  0  0  0  0  0
    5.5980  -20.3800   -4.5050 H   0  0  0  0  0  0  0  0  0  0  0
    4.0340  -20.7490   -3.7470 H   0  0  0  0  0  0  0  0  0  0  0
    3.3150  -18.3920   -5.9260 H   0  0  0  0  0  0  0  0  0  0  0
    2.8260  -17.4490   -4.5070 H   0  0  0  0  0  0  0  0  0  0  0
    4.3500  -17.0760   -5.3390 H   0  0  0  0  0  0  0  0  0  0  0
    1.8100  -19.9880    4.0100 H   0  0  0  0  0  0  0  0  0  0  0
    1.1540  -18.7130    2.9670 H   0  0  0  0  0  0  0  0  0  0  0
    0.1580  -19.4020    4.2770 H   0  0  0  0  0  0  0  0  0  0  0
  1  2  2  0  0  0  0
  1  3  2  0  0  0  0
  1 26  1  0  0  0  0
  1 30  1  0  0  0  0
  4  5  1  0  0  0  0
  4  9  1  0  0  0  0
  4 11  1  0  0  0  0
  5  6  1  0  0  0  0
  5 10  2  0  0  0  0
  6  8  1  0  0  0  0
  6 38  1  0  0  0  0
  6 39  1  0  0  0  0
  7  8  1  0  0  0  0
  7 12  1  0  0  0  0
  7 40  1  0  0  0  0
  7 41  1  0  0  0  0
  8 42  1  0  0  0  0
  8 43  1  0  0  0  0
  9 27  1  0  0  0  0
  9 44  1  0  0  0  0
  9 45  1  0  0  0  0
 11 12  2  0  0  0  0
 11 16  1  0  0  0  0
 12 13  1  0  0  0  0
 13 14  2  0  0  0  0
 13 46  1  0  0  0  0
 14 15  1  0  0  0  0
 14 17  1  0  0  0  0
 15 16  2  0  0  0  0
 15 36  1  0  0  0  0
 16 47  1  0  0  0  0
 17 18  1  0  0  0  0
 17 48  1  0  0  0  0
 18 19  2  0  0  0  0
 18 23  1  0  0  0  0
 19 20  1  0  0  0  0
 20 21  2  0  0  0  0
 20 25  1  0  0  0  0
 21 22  1  0  0  0  0
 21 24  1  0  0  0  0
 22 23  2  0  0  0  0
 22 49  1  0  0  0  0
 25 29  1  0  0  0  0
 25 50  1  0  0  0  0
 26 34  1  0  0  0  0
 26 35  1  0  0  0  0
 27 51  1  0  0  0  0
 27 52  1  0  0  0  0
 27 53  1  0  0  0  0
 28 29  2  0  0  0  0
 28 33  1  0  0  0  0
 28 54  1  0  0  0  0
 29 30  1  0  0  0  0
 30 31  2  0  0  0  0
 31 32  1  0  0  0  0
 31 55  1  0  0  0  0
 32 33  2  0  0  0  0
 32 56  1  0  0  0  0
 33 57  1  0  0  0  0
 34 58  1  0  0  0  0
 34 59  1  0  0  0  0
 34 60  1  0  0  0  0
 35 61  1  0  0  0  0
 35 62  1  0  0  0  0
 35 63  1  0  0  0  0
 36 37  1  0  0  0  0
 37 64  1  0  0  0  0
 37 65  1  0  0  0  0
 37 66  1  0  0  0  0
M  END
> <From>
www.bindingDB.org

> <BindingDB Reactant_set_id>
50940193

> <Ligand InChI>
InChI=1S/C25H29ClN6O4S/c1-5-32-20-14-21(36-4)19(13-16(20)9-8-12-23(32)33)29-25-27-15-17(26)24(30-25)28-18-10-6-7-11-22(18)37(34,35)31(2)3/h6-7,10-11,13-15H,5,8-9,12H2,1-4H3,(H2,27,28,29,30)

> <Ligand InChI Key>
RPLNJVBSDCLPJC-UHFFFAOYSA-N

> <BindingDB MonomerID>
50385591

> <BindingDB Ligand Name>
CHEMBL2042981

> <Target Name Assigned by Curator or DataSource>
ALK tyrosine kinase receptor

> <Target Source Organism According to Curator or DataSource>
Homo sapiens

> <Ki (nM)>


> <IC50 (nM)>
 30

> <Kd (nM)>


> <EC50 (nM)>


> <kon (M-1-s-1)>


> <koff (s-1)>


> <pH>


> <Temp C>


> <Curation/DataSource>
ChEMBL

> <Article DOI>
10.1021/ml100158s

> <PMID>
24900237

> <PubChem AID>


> <Patent Number>


> <Authors>
Ott, GR; Tripathy, R; Cheng, M; McHugh, R; Anzalone, AV; Underiner, TL; Curry, MA; Quail, MR; Lu, L; Wan, W; Angeles, TS; Albom, MS; Aimone, LD; Ator, MA; Ruggeri, BA; Dorsey, BD

> <Institution>
TBA

> <Link to Ligand in BindingDB>
http://www.bindingdb.org/bind/chemsearch/marvin/MolStructure.jsp?monomerid=50385591

> <Link to Ligand-Target Pair in BindingDB>
http://www.bindingdb.org/jsp/dbsearch/PrimarySearch_ki.jsp?energyterm=kJ/mole&tag=pol&polymerid=5809&target=ALK+tyrosine+kinase+receptor&column=ki&startPg=0&Increment=50&submit=Search

> <Link to Ligand-Target Pair in BindingDB>
http://www.bindingdb.org/jsp/dbsearch/PrimarySearch_ki.jsp?energyterm=kJ/mole&tag=r21&monomerid=50385591&enzyme=ALK+tyrosine+kinase+receptor&column=ki&startPg=0&Increment=50&submit=Search

> <Ligand HET ID in PDB>


> <PDB ID(s) for Ligand-Target Complex>


> <PubChem CID>
66830651

> <PubChem SID>
160864674

> <ChEBI ID of Ligand>


> <ChEMBL ID of Ligand>
CHEMBL2042981

> <DrugBank ID of Ligand>


> <IUPHAR_GRAC ID of Ligand>


> <KEGG ID of Ligand>


> <ZINC ID of Ligand>
ZINC84668882

> <Number of Protein Chains in Target (>1 implies a multichain complex)>
1

> <BindingDB Target Chain Sequence>
MGAIGLLWLLPLLLSTAAVGSGMGTGQRAGSPAAGPPLQPREPLSYSRLQRKSLAVDFVVPSLFRVYARDLLLPPSSSELKAGRPEARGSLALDCAPLLRLLGPAPGVSWTAGSPAPAEARTLSRVLKGGSVRKLRRAKQLVLELGEEAILEGCVGPPGEAAVGLLQFNLSELFSWWIRQGEGRLRIRLMPEKKASEVGREGRLSAAIRASQPRLLFQIFGTGHSSLESPTNMPSPSPDYFTWNLTWIMKDSFPFLSHRSRYGLECSFDFPCELEYSPPLHDLRNQSWSWRRIPSEEASQMDLLDGPGAERSKEMPRGSFLLLNTSADSKHTILSPWMRSSSEHCTLAVSVHRHLQPSGRYIAQLLPHNEAAREILLMPTPGKHGWTVLQGRIGRPDNPFRVALEYISSGNRSLSAVDFFALKNCSEGTSPGSKMALQSSFTCWNGTVLQLGQACDFHQDCAQGEDESQMCRKLPVGFYCNFEDGFCGWTQGTLSPHTPQWQVRTLKDARFQDHQDHALLLSTTDVPASESATVTSATFPAPIKSSPCELRMSWLIRGVLRGNVSLVLVENKTGKEQGRMVWHVAAYEGLSLWQWMVLPLLDVSDRFWLQMVAWWGQGSRAIVAFDNISISLDCYLTISGEDKILQNTAPKSRNLFERNPNKELKPGENSPRQTPIFDPTVHWLFTTCGASGPHGPTQAQCNNAYQNSNLSVEVGSEGPLKGIQIWKVPATDTYSISGYGAAGGKGGKNTMMRSHGVSVLGIFNLEKDDMLYILVGQQGEDACPSTNQLIQKVCIGENNVIEEEIRVNRSVHEWAGGGGGGGGATYVFKMKDGVPVPLIIAAGGGGRAYGAKTDTFHPERLENNSSVLGLNGNSGAAGGGGGWNDNTSLLWAGKSLQEGATGGHSCPQAMKKWGWETRGGFGGGGGGCSSGGGGGGYIGGNAASNNDPEMDGEDGVSFISPLGILYTPALKVMEGHGEVNIKHYLNCSHCEVDECHMDPESHKVICFCDHGTVLAEDGVSCIVSPTPEPHLPLSLILSVVTSALVAALVLAFSGIMIVYRRKHQELQAMQMELQSPEYKLSKLRTSTIMTDYNPNYCFAGKTSSISDLKEVPRKNITLIRGLGHGAFGEVYEGQVSGMPNDPSPLQVAVKTLPEVCSEQDELDFLMEALIISKFNHQNIVRCIGVSLQSLPRFILLELMAGGDLKSFLRETRPRPSQPSSLAMLDLLHVARDIACGCQYLEENHFIHRDIAARNCLLTCPGPGRVAKIGDFGMARDIYRASYYRKGGCAMLPVKWMPPEAFMEGIFTSKTDTWSFGVLLWEIFSLGYMPYPSKSNQEVLEFVTSGGRMDPPKNCPGPVYRIMTQCWQHQPEDRPNFAIILERIEYCTQDPDVINTALPIEYGPLVEEEEKVPVRPKDPEGVPPLLVSQQAKREEERSPAAPPPLPTTSSGKAAKKPTAAEISVRVPRGPAVEGGHVNMAFSQSNPPSELHKVHGSRNKPTSLWNPTYGSWFTEKPTKKNNPIAKKEPHDRGNLGLEGSCTVPPNVATGRLPGASLLLEPSSLTANMKEVPLFRLRHFPCGNVNYGYQQQGLPLEAATAPGAGHYEDTILKSKNSMNQPGP

> <PDB ID(s) of Target Chain>
2XB7,2XBA,3AOX,5FTO,5FTQ,6E0R,6EBW,6EDL,6MX8

> <UniProt (SwissProt) Recommended Name of Target Chain>
ALK tyrosine kinase receptor

> <UniProt (SwissProt) Entry Name of Target Chain>
ALK_HUMAN

> <UniProt (SwissProt) Primary ID of Target Chain>
Q9UM73

> <UniProt (SwissProt) Secondary ID(s) of Target Chain>
Q4ZFX9,Q53QQ6,Q53RZ4,Q59FI3,Q9Y4K6

> <UniProt (SwissProt) Alternative ID(s) of Target Chain>


> <UniProt (TrEMBL) Submitted Name of Target Chain>


> <UniProt (TrEMBL) Entry Name of Target Chain>


> <UniProt (TrEMBL) Primary ID of Target Chain>


> <UniProt (TrEMBL) Secondary ID(s) of Target Chain>


> <UniProt (TrEMBL) Alternative ID(s) of Target Chain>


$$$$
BindingDB_50385600_mol_1

Vconf v2.0 Academic SN VC001-00000579
 66 69  0  0  0  0  0  0  0  0999 V2000
   26.2560  -12.9830   -2.5640 S   0  0  0  0  0  0  0  0  0  0  0
   26.7590  -11.8940   -3.6090 O   0  0  0  0  0  0  0  0  0  0  0
   26.7370  -14.4960   -2.6600 O   0  0  0  0  0  0  0  0  0  0  0
   17.3700  -12.8540    0.2500 N   0  0  0  0  0  0  0  0  0  0  0
   16.1490  -13.1930   -0.2810 C   0  0  0  0  0  0  0  0  0  0  0
   15.7890  -14.5880   -0.5820 C   0  0  0  0  0  0  0  0  0  0  0
   18.1550  -14.7960   -1.6810 C   0  0  0  0  0  0  0  0  0  0  0
   16.6600  -15.1890   -1.7080 C   0  0  0  0  0  0  0  0  0  0  0
   17.7080  -11.4670    0.4140 C   0  0  0  0  0  0  0  0  0  0  0
   15.3030  -12.3080   -0.5450 O   0  0  0  0  0  0  0  0  0  0  0
   18.2770  -13.8180    0.6120 C   0  0  0  0  0  0  0  0  0  0  0
   18.7160  -14.7960   -0.3130 C   0  0  0  0  0  0  0  0  0  0  0
   19.6660  -15.7630    0.0810 C   0  0  0  0  0  0  0  0  0  0  0
   20.1910  -15.7510    1.3910 C   0  0  0  0  0  0  0  0  0  0  0
   19.7260  -14.8030    2.3180 C   0  0  0  0  0  0  0  0  0  0  0
   18.7770  -13.8440    1.9300 C   0  0  0  0  0  0  0  0  0  0  0
   21.1360  -16.6410    1.7810 N   0  0  0  0  0  0  0  0  0  0  0
   22.3900  -16.6760    1.2750 C   0  0  0  0  0  0  0  0  0  0  0
   22.8240  -15.7870    0.3490 N   0  0  0  0  0  0  0  0  0  0  0
   24.0740  -15.7950   -0.1760 C   0  0  0  0  0  0  0  0  0  0  0
   24.9750  -16.7860    0.2700 C   0  0  0  0  0  0  0  0  0  0  0
   24.5160  -17.7000    1.2340 C   0  0  0  0  0  0  0  0  0  0  0
   23.2510  -17.6220    1.7090 N   0  0  0  0  0  0  0  0  0  0  0
   26.5590  -16.9340   -0.3140 Cl  0  0  0  0  0  0  0  0  0  0  0
   24.4800  -14.8560   -1.0830 N   0  0  0  0  0  0  0  0  0  0  0
   26.7790  -12.3800   -1.0760 N   0  0  0  0  0  0  0  0  0  0  0
   17.9600  -10.7910   -0.9440 C   0  0  0  0  0  0  0  0  0  0  0
   22.3660  -13.7240   -1.6710 C   0  0  0  0  0  0  0  0  0  0  0
   23.7740  -13.8660   -1.7150 C   0  0  0  0  0  0  0  0  0  0  0
   24.5150  -12.9310   -2.4800 C   0  0  0  0  0  0  0  0  0  0  0
   23.8560  -11.8880   -3.1620 C   0  0  0  0  0  0  0  0  0  0  0
   22.4600  -11.7650   -3.1010 C   0  0  0  0  0  0  0  0  0  0  0
   21.7140  -12.6860   -2.3550 C   0  0  0  0  0  0  0  0  0  0  0
   20.0970  -16.6880   -0.8190 O   0  0  0  0  0  0  0  0  0  0  0
   19.5430  -18.0030   -0.7510 C   0  0  0  0  0  0  0  0  0  0  0
   27.4160  -13.2490   -0.1530 C   0  0  0  0  0  0  0  0  0  0  0
   26.5950  -11.0010   -0.7850 C   0  0  0  0  0  0  0  0  0  0  0
   15.9020  -15.1850    0.3240 H   0  0  0  0  0  0  0  0  0  0  0
   14.7440  -14.6380   -0.8920 H   0  0  0  0  0  0  0  0  0  0  0
   18.6940  -15.4910   -2.3270 H   0  0  0  0  0  0  0  0  0  0  0
   18.2720  -13.7980   -2.1090 H   0  0  0  0  0  0  0  0  0  0  0
   16.5850  -16.2750   -1.6490 H   0  0  0  0  0  0  0  0  0  0  0
   16.2500  -14.8750   -2.6690 H   0  0  0  0  0  0  0  0  0  0  0
   16.9010  -10.9470    0.9330 H   0  0  0  0  0  0  0  0  0  0  0
   18.6170  -11.3400    1.0060 H   0  0  0  0  0  0  0  0  0  0  0
   20.0900  -14.7970    3.2710 H   0  0  0  0  0  0  0  0  0  0  0
   18.4560  -13.1550    2.6110 H   0  0  0  0  0  0  0  0  0  0  0
   20.9100  -17.2740    2.4800 H   0  0  0  0  0  0  0  0  0  0  0
   25.1320  -18.4350    1.5860 H   0  0  0  0  0  0  0  0  0  0  0
   25.4210  -14.8970   -1.3030 H   0  0  0  0  0  0  0  0  0  0  0
   18.2450   -9.7520   -0.7810 H   0  0  0  0  0  0  0  0  0  0  0
   18.7670  -11.3060   -1.4650 H   0  0  0  0  0  0  0  0  0  0  0
   17.0580  -10.8200   -1.5560 H   0  0  0  0  0  0  0  0  0  0  0
   21.7870  -14.3830   -1.1610 H   0  0  0  0  0  0  0  0  0  0  0
   24.3950  -11.2100   -3.7000 H   0  0  0  0  0  0  0  0  0  0  0
   21.9910  -11.0070   -3.5990 H   0  0  0  0  0  0  0  0  0  0  0
   20.6970  -12.6060   -2.3130 H   0  0  0  0  0  0  0  0  0  0  0
   19.9830  -18.6090   -1.5430 H   0  0  0  0  0  0  0  0  0  0  0
   19.7680  -18.4650    0.2110 H   0  0  0  0  0  0  0  0  0  0  0
   18.4620  -17.9650   -0.8940 H   0  0  0  0  0  0  0  0  0  0  0
   27.7590  -12.7100    0.7290 H   0  0  0  0  0  0  0  0  0  0  0
   26.7130  -14.0190    0.1580 H   0  0  0  0  0  0  0  0  0  0  0
   28.2730  -13.7180   -0.6360 H   0  0  0  0  0  0  0  0  0  0  0
   26.9710  -10.7520    0.2070 H   0  0  0  0  0  0  0  0  0  0  0
   27.1270  -10.4030   -1.5250 H   0  0  0  0  0  0  0  0  0  0  0
   25.5320  -10.7610   -0.8280 H   0  0  0  0  0  0  0  0  0  0  0
  1  2  2  0  0  0  0
  1  3  2  0  0  0  0
  1 26  1  0  0  0  0
  1 30  1  0  0  0  0
  4  5  1  0  0  0  0
  4  9  1  0  0  0  0
  4 11  1  0  0  0  0
  5  6  1  0  0  0  0
  5 10  2  0  0  0  0
  6  8  1  0  0  0  0
  6 38  1  0  0  0  0
  6 39  1  0  0  0  0
  7  8  1  0  0  0  0
  7 12  1  0  0  0  0
  7 40  1  0  0  0  0
  7 41  1  0  0  0  0
  8 42  1  0  0  0  0
  8 43  1  0  0  0  0
  9 27  1  0  0  0  0
  9 44  1  0  0  0  0
  9 45  1  0  0  0  0
 11 12  2  0  0  0  0
 11 16  1  0  0  0  0
 12 13  1  0  0  0  0
 13 14  2  0  0  0  0
 13 34  1  0  0  0  0
 14 15  1  0  0  0  0
 14 17  1  0  0  0  0
 15 16  2  0  0  0  0
 15 46  1  0  0  0  0
 16 47  1  0  0  0  0
 17 18  1  0  0  0  0
 17 48  1  0  0  0  0
 18 19  2  0  0  0  0
 18 23  1  0  0  0  0
 19 20  1  0  0  0  0
 20 21  2  0  0  0  0
 20 25  1  0  0  0  0
 21 22  1  0  0  0  0
 21 24  1  0  0  0  0
 22 23  2  0  0  0  0
 22 49  1  0  0  0  0
 25 29  1  0  0  0  0
 25 50  1  0  0  0  0
 26 36  1  0  0  0  0
 26 37  1  0  0  0  0
 27 51  1  0  0  0  0
 27 52  1  0  0  0  0
 27 53  1  0  0  0  0
 28 29  2  0  0  0  0
 28 33  1  0  0  0  0
 28 54  1  0  0  0  0
 29 30  1  0  0  0  0
 30 31  2  0  0  0  0
 31 32  1  0  0  0  0
 31 55  1  0  0  0  0
 32 33  2  0  0  0  0
 32 56  1  0  0  0  0
 33 57  1  0  0  0  0
 34 35  1  0  0  0  0
 35 58  1  0  0  0  0
 35 59  1  0  0  0  0
 35 60  1  0  0  0  0
 36 61  1  0  0  0  0
 36 62  1  0  0  0  0
 36 63  1  0  0  0  0
 37 64  1  0  0  0  0
 37 65  1  0  0  0  0
 37 66  1  0  0  0  0
M  END
> <From>
www.bindingDB.org

> <BindingDB Reactant_set_id>
50940192

> <Ligand InChI>
InChI=1S/C25H29ClN6O4S/c1-5-32-20-14-13-19(23(36-4)16(20)9-8-12-22(32)33)29-25-27-15-17(26)24(30-25)28-18-10-6-7-11-21(18)37(34,35)31(2)3/h6-7,10-11,13-15H,5,8-9,12H2,1-4H3,(H2,27,28,29,30)

> <Ligand InChI Key>
NXKBBURYGABXCP-UHFFFAOYSA-N

> <BindingDB MonomerID>
50385600

> <BindingDB Ligand Name>
CHEMBL2042831

> <Target Name Assigned by Curator or DataSource>
ALK tyrosine kinase receptor

> <Target Source Organism According to Curator or DataSource>
Homo sapiens

> <Ki (nM)>


> <IC50 (nM)>
 65

> <Kd (nM)>


> <EC50 (nM)>


> <kon (M-1-s-1)>


> <koff (s-1)>


> <pH>


> <Temp C>


> <Curation/DataSource>
ChEMBL

> <Article DOI>
10.1021/ml100158s

> <PMID>
24900237

> <PubChem AID>


> <Patent Number>


> <Authors>
Ott, GR; Tripathy, R; Cheng, M; McHugh, R; Anzalone, AV; Underiner, TL; Curry, MA; Quail, MR; Lu, L; Wan, W; Angeles, TS; Albom, MS; Aimone, LD; Ator, MA; Ruggeri, BA; Dorsey, BD

> <Institution>
TBA

> <Link to Ligand in BindingDB>
http://www.bindingdb.org/bind/chemsearch/marvin/MolStructure.jsp?monomerid=50385600

> <Link to Ligand-Target Pair in BindingDB>
http://www.bindingdb.org/jsp/dbsearch/PrimarySearch_ki.jsp?energyterm=kJ/mole&tag=pol&polymerid=5809&target=ALK+tyrosine+kinase+receptor&column=ki&startPg=0&Increment=50&submit=Search

> <Link to Ligand-Target Pair in BindingDB>
http://www.bindingdb.org/jsp/dbsearch/PrimarySearch_ki.jsp?energyterm=kJ/mole&tag=r21&monomerid=50385600&enzyme=ALK+tyrosine+kinase+receptor&column=ki&startPg=0&Increment=50&submit=Search

> <Ligand HET ID in PDB>


> <PDB ID(s) for Ligand-Target Complex>


> <PubChem CID>
66830288

> <PubChem SID>
160864683

> <ChEBI ID of Ligand>


> <ChEMBL ID of Ligand>
CHEMBL2042831

> <DrugBank ID of Ligand>


> <IUPHAR_GRAC ID of Ligand>


> <KEGG ID of Ligand>


> <ZINC ID of Ligand>
ZINC84709881

> <Number of Protein Chains in Target (>1 implies a multichain complex)>
1

> <BindingDB Target Chain Sequence>
MGAIGLLWLLPLLLSTAAVGSGMGTGQRAGSPAAGPPLQPREPLSYSRLQRKSLAVDFVVPSLFRVYARDLLLPPSSSELKAGRPEARGSLALDCAPLLRLLGPAPGVSWTAGSPAPAEARTLSRVLKGGSVRKLRRAKQLVLELGEEAILEGCVGPPGEAAVGLLQFNLSELFSWWIRQGEGRLRIRLMPEKKASEVGREGRLSAAIRASQPRLLFQIFGTGHSSLESPTNMPSPSPDYFTWNLTWIMKDSFPFLSHRSRYGLECSFDFPCELEYSPPLHDLRNQSWSWRRIPSEEASQMDLLDGPGAERSKEMPRGSFLLLNTSADSKHTILSPWMRSSSEHCTLAVSVHRHLQPSGRYIAQLLPHNEAAREILLMPTPGKHGWTVLQGRIGRPDNPFRVALEYISSGNRSLSAVDFFALKNCSEGTSPGSKMALQSSFTCWNGTVLQLGQACDFHQDCAQGEDESQMCRKLPVGFYCNFEDGFCGWTQGTLSPHTPQWQVRTLKDARFQDHQDHALLLSTTDVPASESATVTSATFPAPIKSSPCELRMSWLIRGVLRGNVSLVLVENKTGKEQGRMVWHVAAYEGLSLWQWMVLPLLDVSDRFWLQMVAWWGQGSRAIVAFDNISISLDCYLTISGEDKILQNTAPKSRNLFERNPNKELKPGENSPRQTPIFDPTVHWLFTTCGASGPHGPTQAQCNNAYQNSNLSVEVGSEGPLKGIQIWKVPATDTYSISGYGAAGGKGGKNTMMRSHGVSVLGIFNLEKDDMLYILVGQQGEDACPSTNQLIQKVCIGENNVIEEEIRVNRSVHEWAGGGGGGGGATYVFKMKDGVPVPLIIAAGGGGRAYGAKTDTFHPERLENNSSVLGLNGNSGAAGGGGGWNDNTSLLWAGKSLQEGATGGHSCPQAMKKWGWETRGGFGGGGGGCSSGGGGGGYIGGNAASNNDPEMDGEDGVSFISPLGILYTPALKVMEGHGEVNIKHYLNCSHCEVDECHMDPESHKVICFCDHGTVLAEDGVSCIVSPTPEPHLPLSLILSVVTSALVAALVLAFSGIMIVYRRKHQELQAMQMELQSPEYKLSKLRTSTIMTDYNPNYCFAGKTSSISDLKEVPRKNITLIRGLGHGAFGEVYEGQVSGMPNDPSPLQVAVKTLPEVCSEQDELDFLMEALIISKFNHQNIVRCIGVSLQSLPRFILLELMAGGDLKSFLRETRPRPSQPSSLAMLDLLHVARDIACGCQYLEENHFIHRDIAARNCLLTCPGPGRVAKIGDFGMARDIYRASYYRKGGCAMLPVKWMPPEAFMEGIFTSKTDTWSFGVLLWEIFSLGYMPYPSKSNQEVLEFVTSGGRMDPPKNCPGPVYRIMTQCWQHQPEDRPNFAIILERIEYCTQDPDVINTALPIEYGPLVEEEEKVPVRPKDPEGVPPLLVSQQAKREEERSPAAPPPLPTTSSGKAAKKPTAAEISVRVPRGPAVEGGHVNMAFSQSNPPSELHKVHGSRNKPTSLWNPTYGSWFTEKPTKKNNPIAKKEPHDRGNLGLEGSCTVPPNVATGRLPGASLLLEPSSLTANMKEVPLFRLRHFPCGNVNYGYQQQGLPLEAATAPGAGHYEDTILKSKNSMNQPGP

> <PDB ID(s) of Target Chain>
2XB7,2XBA,3AOX,5FTO,5FTQ,6E0R,6EBW,6EDL,6MX8

> <UniProt (SwissProt) Recommended Name of Target Chain>
ALK tyrosine kinase receptor

> <UniProt (SwissProt) Entry Name of Target Chain>
ALK_HUMAN

> <UniProt (SwissProt) Primary ID of Target Chain>
Q9UM73

> <UniProt (SwissProt) Secondary ID(s) of Target Chain>
Q4ZFX9,Q53QQ6,Q53RZ4,Q59FI3,Q9Y4K6

> <UniProt (SwissProt) Alternative ID(s) of Target Chain>


> <UniProt (TrEMBL) Submitted Name of Target Chain>


> <UniProt (TrEMBL) Entry Name of Target Chain>


> <UniProt (TrEMBL) Primary ID of Target Chain>


> <UniProt (TrEMBL) Secondary ID(s) of Target Chain>


> <UniProt (TrEMBL) Alternative ID(s) of Target Chain>


$$$$
BindingDB_50385601_mol_1

Vconf v2.0 Academic SN VC001-00000579
 67 70  0  0  0  0  0  0  0  0999 V2000
    8.3800  -22.4530    6.4510 S   0  0  0  0  0  0  0  0  0  0  0
    8.1740  -23.8790    5.7770 O   0  0  0  0  0  0  0  0  0  0  0
    7.7490  -22.1050    7.8690 O   0  0  0  0  0  0  0  0  0  0  0
    7.5280  -16.6520   -1.2460 N   0  0  0  0  0  0  0  0  0  0  0
    6.4300  -16.4670   -2.0500 C   0  0  0  0  0  0  0  0  0  0  0
    5.8080  -17.5760   -2.7920 C   0  0  0  0  0  0  0  0  0  0  0
    5.9990  -18.9610   -0.5790 C   0  0  0  0  0  0  0  0  0  0  0
    5.1870  -18.6360   -1.8540 C   0  0  0  0  0  0  0  0  0  0  0
    8.0160  -15.5570   -0.4520 C   0  0  0  0  0  0  0  0  0  0  0
    5.9090  -15.3340   -2.1620 O   0  0  0  0  0  0  0  0  0  0  0
    8.1610  -17.8680   -1.1790 C   0  0  0  0  0  0  0  0  0  0  0
    7.4520  -19.0460   -0.8370 C   0  0  0  0  0  0  0  0  0  0  0
    8.1320  -20.2820   -0.7660 C   0  0  0  0  0  0  0  0  0  0  0
    9.5220  -20.3480   -1.0140 C   0  0  0  0  0  0  0  0  0  0  0
   10.2130  -19.1810   -1.3820 C   0  0  0  0  0  0  0  0  0  0  0
    9.5380  -17.9530   -1.4640 C   0  0  0  0  0  0  0  0  0  0  0
   10.2210  -21.5070   -0.9370 N   0  0  0  0  0  0  0  0  0  0  0
   10.3130  -22.2820    0.1700 C   0  0  0  0  0  0  0  0  0  0  0
    9.7040  -21.9680    1.3390 N   0  0  0  0  0  0  0  0  0  0  0
    9.7860  -22.7320    2.4560 C   0  0  0  0  0  0  0  0  0  0  0
   10.5560  -23.9130    2.4020 C   0  0  0  0  0  0  0  0  0  0  0
   11.1860  -24.2270    1.1860 C   0  0  0  0  0  0  0  0  0  0  0
   11.0510  -23.4130    0.1130 N   0  0  0  0  0  0  0  0  0  0  0
   10.7550  -24.9530    3.7270 Cl  0  0  0  0  0  0  0  0  0  0  0
    9.1630  -22.3910    3.6210 N   0  0  0  0  0  0  0  0  0  0  0
   10.1680  -22.3340    6.6890 C   0  0  0  0  0  0  0  0  0  0  0
    7.0490  -15.2360    0.7000 C   0  0  0  0  0  0  0  0  0  0  0
    7.9770  -20.2980    3.0430 C   0  0  0  0  0  0  0  0  0  0  0
    8.3720  -21.3210    3.9380 C   0  0  0  0  0  0  0  0  0  0  0
    7.9200  -21.2510    5.2770 C   0  0  0  0  0  0  0  0  0  0  0
    7.0970  -20.1890    5.6970 C   0  0  0  0  0  0  0  0  0  0  0
    6.7120  -19.1870    4.7950 C   0  0  0  0  0  0  0  0  0  0  0
    7.1550  -19.2410    3.4650 C   0  0  0  0  0  0  0  0  0  0  0
    7.4390  -21.4070   -0.4450 O   0  0  0  0  0  0  0  0  0  0  0
    7.0650  -22.2920   -1.5020 C   0  0  0  0  0  0  0  0  0  0  0
   10.5490  -20.9630    7.2670 C   0  0  0  0  0  0  0  0  0  0  0
   10.6310  -23.4510    7.6340 C   0  0  0  0  0  0  0  0  0  0  0
    6.5630  -18.0470   -3.4230 H   0  0  0  0  0  0  0  0  0  0  0
    5.0210  -17.1870   -3.4390 H   0  0  0  0  0  0  0  0  0  0  0
    5.6170  -19.8980   -0.1710 H   0  0  0  0  0  0  0  0  0  0  0
    5.8180  -18.1850    0.1680 H   0  0  0  0  0  0  0  0  0  0  0
    4.2010  -18.2890   -1.5430 H   0  0  0  0  0  0  0  0  0  0  0
    5.0550  -19.5550   -2.4270 H   0  0  0  0  0  0  0  0  0  0  0
    8.9840  -15.7840    0.0000 H   0  0  0  0  0  0  0  0  0  0  0
    8.1420  -14.6700   -1.0760 H   0  0  0  0  0  0  0  0  0  0  0
   11.2140  -19.2190   -1.5800 H   0  0  0  0  0  0  0  0  0  0  0
   10.0570  -17.1150   -1.7280 H   0  0  0  0  0  0  0  0  0  0  0
   10.7320  -21.7790   -1.7140 H   0  0  0  0  0  0  0  0  0  0  0
   11.7530  -25.0720    1.0990 H   0  0  0  0  0  0  0  0  0  0  0
    9.3060  -23.0190    4.3450 H   0  0  0  0  0  0  0  0  0  0  0
   10.6700  -22.4610    5.7310 H   0  0  0  0  0  0  0  0  0  0  0
    7.4660  -14.4340    1.3080 H   0  0  0  0  0  0  0  0  0  0  0
    6.0830  -14.9190    0.3070 H   0  0  0  0  0  0  0  0  0  0  0
    6.9130  -16.1230    1.3200 H   0  0  0  0  0  0  0  0  0  0  0
    8.2740  -20.3030    2.0720 H   0  0  0  0  0  0  0  0  0  0  0
    6.7770  -20.1440    6.6650 H   0  0  0  0  0  0  0  0  0  0  0
    6.1140  -18.4200    5.1050 H   0  0  0  0  0  0  0  0  0  0  0
    6.8770  -18.5150    2.8040 H   0  0  0  0  0  0  0  0  0  0  0
    6.5180  -23.1330   -1.0780 H   0  0  0  0  0  0  0  0  0  0  0
    6.4220  -21.7750   -2.2160 H   0  0  0  0  0  0  0  0  0  0  0
    7.9500  -22.6700   -2.0160 H   0  0  0  0  0  0  0  0  0  0  0
   11.6270  -20.9150    7.4210 H   0  0  0  0  0  0  0  0  0  0  0
   10.2530  -20.1770    6.5730 H   0  0  0  0  0  0  0  0  0  0  0
   10.0410  -20.8100    8.2200 H   0  0  0  0  0  0  0  0  0  0  0
   11.7110  -23.3970    7.7710 H   0  0  0  0  0  0  0  0  0  0  0
   10.1350  -23.3450    8.5990 H   0  0  0  0  0  0  0  0  0  0  0
   10.3720  -24.4190    7.2030 H   0  0  0  0  0  0  0  0  0  0  0
  1  2  2  0  0  0  0
  1  3  2  0  0  0  0
  1 26  1  0  0  0  0
  1 30  1  0  0  0  0
  4  5  1  0  0  0  0
  4  9  1  0  0  0  0
  4 11  1  0  0  0  0
  5  6  1  0  0  0  0
  5 10  2  0  0  0  0
  6  8  1  0  0  0  0
  6 38  1  0  0  0  0
  6 39  1  0  0  0  0
  7  8  1  0  0  0  0
  7 12  1  0  0  0  0
  7 40  1  0  0  0  0
  7 41  1  0  0  0  0
  8 42  1  0  0  0  0
  8 43  1  0  0  0  0
  9 27  1  0  0  0  0
  9 44  1  0  0  0  0
  9 45  1  0  0  0  0
 11 12  2  0  0  0  0
 11 16  1  0  0  0  0
 12 13  1  0  0  0  0
 13 14  2  0  0  0  0
 13 34  1  0  0  0  0
 14 15  1  0  0  0  0
 14 17  1  0  0  0  0
 15 16  2  0  0  0  0
 15 46  1  0  0  0  0
 16 47  1  0  0  0  0
 17 18  1  0  0  0  0
 17 48  1  0  0  0  0
 18 19  2  0  0  0  0
 18 23  1  0  0  0  0
 19 20  1  0  0  0  0
 20 21  2  0  0  0  0
 20 25  1  0  0  0  0
 21 22  1  0  0  0  0
 21 24  1  0  0  0  0
 22 23  2  0  0  0  0
 22 49  1  0  0  0  0
 25 29  1  0  0  0  0
 25 50  1  0  0  0  0
 26 36  1  0  0  0  0
 26 37  1  0  0  0  0
 26 51  1  0  0  0  0
 27 52  1  0  0  0  0
 27 53  1  0  0  0  0
 27 54  1  0  0  0  0
 28 29  2  0  0  0  0
 28 33  1  0  0  0  0
 28 55  1  0  0  0  0
 29 30  1  0  0  0  0
 30 31  2  0  0  0  0
 31 32  1  0  0  0  0
 31 56  1  0  0  0  0
 32 33  2  0  0  0  0
 32 57  1  0  0  0  0
 33 58  1  0  0  0  0
 34 35  1  0  0  0  0
 35 59  1  0  0  0  0
 35 60  1  0  0  0  0
 35 61  1  0  0  0  0
 36 62  1  0  0  0  0
 36 63  1  0  0  0  0
 36 64  1  0  0  0  0
 37 65  1  0  0  0  0
 37 66  1  0  0  0  0
 37 67  1  0  0  0  0
M  END
> <From>
www.bindingDB.org

> <BindingDB Reactant_set_id>
50940194

> <Ligand InChI>
InChI=1S/C26H30ClN5O4S/c1-5-32-21-14-13-20(24(36-4)17(21)9-8-12-23(32)33)30-26-28-15-18(27)25(31-26)29-19-10-6-7-11-22(19)37(34,35)16(2)3/h6-7,10-11,13-16H,5,8-9,12H2,1-4H3,(H2,28,29,30,31)

> <Ligand InChI Key>
YEFKWCQOENUXOA-UHFFFAOYSA-N

> <BindingDB MonomerID>
50385601

> <BindingDB Ligand Name>
CHEMBL2042982

> <Target Name Assigned by Curator or DataSource>
ALK tyrosine kinase receptor

> <Target Source Organism According to Curator or DataSource>
Homo sapiens

> <Ki (nM)>


> <IC50 (nM)>
 50

> <Kd (nM)>


> <EC50 (nM)>


> <kon (M-1-s-1)>


> <koff (s-1)>


> <pH>


> <Temp C>


> <Curation/DataSource>
ChEMBL

> <Article DOI>
10.1021/ml100158s

> <PMID>
24900237

> <PubChem AID>


> <Patent Number>


> <Authors>
Ott, GR; Tripathy, R; Cheng, M; McHugh, R; Anzalone, AV; Underiner, TL; Curry, MA; Quail, MR; Lu, L; Wan, W; Angeles, TS; Albom, MS; Aimone, LD; Ator, MA; Ruggeri, BA; Dorsey, BD

> <Institution>
TBA

> <Link to Ligand in BindingDB>
http://www.bindingdb.org/bind/chemsearch/marvin/MolStructure.jsp?monomerid=50385601

> <Link to Ligand-Target Pair in BindingDB>
http://www.bindingdb.org/jsp/dbsearch/PrimarySearch_ki.jsp?energyterm=kJ/mole&tag=pol&polymerid=5809&target=ALK+tyrosine+kinase+receptor&column=ki&startPg=0&Increment=50&submit=Search

> <Link to Ligand-Target Pair in BindingDB>
http://www.bindingdb.org/jsp/dbsearch/PrimarySearch_ki.jsp?energyterm=kJ/mole&tag=r21&monomerid=50385601&enzyme=ALK+tyrosine+kinase+receptor&column=ki&startPg=0&Increment=50&submit=Search

> <Ligand HET ID in PDB>


> <PDB ID(s) for Ligand-Target Complex>


> <PubChem CID>
66830485

> <PubChem SID>
160864684

> <ChEBI ID of Ligand>


> <ChEMBL ID of Ligand>
CHEMBL2042982

> <DrugBank ID of Ligand>


> <IUPHAR_GRAC ID of Ligand>


> <KEGG ID of Ligand>


> <ZINC ID of Ligand>
ZINC84668883

> <Number of Protein Chains in Target (>1 implies a multichain complex)>
1

> <BindingDB Target Chain Sequence>
MGAIGLLWLLPLLLSTAAVGSGMGTGQRAGSPAAGPPLQPREPLSYSRLQRKSLAVDFVVPSLFRVYARDLLLPPSSSELKAGRPEARGSLALDCAPLLRLLGPAPGVSWTAGSPAPAEARTLSRVLKGGSVRKLRRAKQLVLELGEEAILEGCVGPPGEAAVGLLQFNLSELFSWWIRQGEGRLRIRLMPEKKASEVGREGRLSAAIRASQPRLLFQIFGTGHSSLESPTNMPSPSPDYFTWNLTWIMKDSFPFLSHRSRYGLECSFDFPCELEYSPPLHDLRNQSWSWRRIPSEEASQMDLLDGPGAERSKEMPRGSFLLLNTSADSKHTILSPWMRSSSEHCTLAVSVHRHLQPSGRYIAQLLPHNEAAREILLMPTPGKHGWTVLQGRIGRPDNPFRVALEYISSGNRSLSAVDFFALKNCSEGTSPGSKMALQSSFTCWNGTVLQLGQACDFHQDCAQGEDESQMCRKLPVGFYCNFEDGFCGWTQGTLSPHTPQWQVRTLKDARFQDHQDHALLLSTTDVPASESATVTSATFPAPIKSSPCELRMSWLIRGVLRGNVSLVLVENKTGKEQGRMVWHVAAYEGLSLWQWMVLPLLDVSDRFWLQMVAWWGQGSRAIVAFDNISISLDCYLTISGEDKILQNTAPKSRNLFERNPNKELKPGENSPRQTPIFDPTVHWLFTTCGASGPHGPTQAQCNNAYQNSNLSVEVGSEGPLKGIQIWKVPATDTYSISGYGAAGGKGGKNTMMRSHGVSVLGIFNLEKDDMLYILVGQQGEDACPSTNQLIQKVCIGENNVIEEEIRVNRSVHEWAGGGGGGGGATYVFKMKDGVPVPLIIAAGGGGRAYGAKTDTFHPERLENNSSVLGLNGNSGAAGGGGGWNDNTSLLWAGKSLQEGATGGHSCPQAMKKWGWETRGGFGGGGGGCSSGGGGGGYIGGNAASNNDPEMDGEDGVSFISPLGILYTPALKVMEGHGEVNIKHYLNCSHCEVDECHMDPESHKVICFCDHGTVLAEDGVSCIVSPTPEPHLPLSLILSVVTSALVAALVLAFSGIMIVYRRKHQELQAMQMELQSPEYKLSKLRTSTIMTDYNPNYCFAGKTSSISDLKEVPRKNITLIRGLGHGAFGEVYEGQVSGMPNDPSPLQVAVKTLPEVCSEQDELDFLMEALIISKFNHQNIVRCIGVSLQSLPRFILLELMAGGDLKSFLRETRPRPSQPSSLAMLDLLHVARDIACGCQYLEENHFIHRDIAARNCLLTCPGPGRVAKIGDFGMARDIYRASYYRKGGCAMLPVKWMPPEAFMEGIFTSKTDTWSFGVLLWEIFSLGYMPYPSKSNQEVLEFVTSGGRMDPPKNCPGPVYRIMTQCWQHQPEDRPNFAIILERIEYCTQDPDVINTALPIEYGPLVEEEEKVPVRPKDPEGVPPLLVSQQAKREEERSPAAPPPLPTTSSGKAAKKPTAAEISVRVPRGPAVEGGHVNMAFSQSNPPSELHKVHGSRNKPTSLWNPTYGSWFTEKPTKKNNPIAKKEPHDRGNLGLEGSCTVPPNVATGRLPGASLLLEPSSLTANMKEVPLFRLRHFPCGNVNYGYQQQGLPLEAATAPGAGHYEDTILKSKNSMNQPGP

> <PDB ID(s) of Target Chain>
2XB7,2XBA,3AOX,5FTO,5FTQ,6E0R,6EBW,6EDL,6MX8

> <UniProt (SwissProt) Recommended Name of Target Chain>
ALK tyrosine kinase receptor

> <UniProt (SwissProt) Entry Name of Target Chain>
ALK_HUMAN

> <UniProt (SwissProt) Primary ID of Target Chain>
Q9UM73

> <UniProt (SwissProt) Secondary ID(s) of Target Chain>
Q4ZFX9,Q53QQ6,Q53RZ4,Q59FI3,Q9Y4K6

> <UniProt (SwissProt) Alternative ID(s) of Target Chain>


> <UniProt (TrEMBL) Submitted Name of Target Chain>


> <UniProt (TrEMBL) Entry Name of Target Chain>


> <UniProt (TrEMBL) Primary ID of Target Chain>


> <UniProt (TrEMBL) Secondary ID(s) of Target Chain>


> <UniProt (TrEMBL) Alternative ID(s) of Target Chain>


$$$$
BindingDB_50385602_mol_1

Vconf v2.0 Academic SN VC001-00000579
 67 70  0  0  0  0  0  0  0  0999 V2000
   19.9370  -20.3780   -7.1560 S   0  0  0  0  0  0  0  0  0  0  0
   21.2050  -21.3110   -7.3800 O   0  0  0  0  0  0  0  0  0  0  0
   19.4710  -19.3970   -8.3200 O   0  0  0  0  0  0  0  0  0  0  0
   19.3030  -17.6160    1.4250 N   0  0  0  0  0  0  0  0  0  0  0
   18.1600  -17.3290    0.7170 C   0  0  0  0  0  0  0  0  0  0  0
   17.6700  -18.1940   -0.3690 C   0  0  0  0  0  0  0  0  0  0  0
   18.1270  -20.2210    1.2220 C   0  0  0  0  0  0  0  0  0  0  0
   17.2280  -19.5860    0.1360 C   0  0  0  0  0  0  0  0  0  0  0
   19.6720  -16.7810    2.5360 C   0  0  0  0  0  0  0  0  0  0  0
   17.4870  -16.3080    0.9840 O   0  0  0  0  0  0  0  0  0  0  0
   20.0980  -18.6830    1.0850 C   0  0  0  0  0  0  0  0  0  0  0
   19.5640  -19.9880    0.9770 C   0  0  0  0  0  0  0  0  0  0  0
   20.4010  -21.0560    0.6090 C   0  0  0  0  0  0  0  0  0  0  0
   21.7640  -20.8460    0.3290 C   0  0  0  0  0  0  0  0  0  0  0
   22.3140  -19.5460    0.4510 C   0  0  0  0  0  0  0  0  0  0  0
   21.4690  -18.4840    0.8200 C   0  0  0  0  0  0  0  0  0  0  0
   22.4760  -21.9190   -0.0860 N   0  0  0  0  0  0  0  0  0  0  0
   22.5130  -22.3140   -1.3800 C   0  0  0  0  0  0  0  0  0  0  0
   21.9260  -21.5920   -2.3630 N   0  0  0  0  0  0  0  0  0  0  0
   21.9400  -21.9410   -3.6710 C   0  0  0  0  0  0  0  0  0  0  0
   22.5890  -23.1430   -4.0270 C   0  0  0  0  0  0  0  0  0  0  0
   23.2050  -23.8820   -3.0020 C   0  0  0  0  0  0  0  0  0  0  0
   23.1560  -23.4530   -1.7180 N   0  0  0  0  0  0  0  0  0  0  0
   22.6720  -23.7140   -5.6200 Cl  0  0  0  0  0  0  0  0  0  0  0
   21.3320  -21.1750   -4.6250 N   0  0  0  0  0  0  0  0  0  0  0
   18.5190  -21.4880   -6.9970 C   0  0  0  0  0  0  0  0  0  0  0
   18.7030  -16.9600    3.7160 C   0  0  0  0  0  0  0  0  0  0  0
   20.7750  -19.1150   -3.3810 C   0  0  0  0  0  0  0  0  0  0  0
   20.7400  -19.9420   -4.5320 C   0  0  0  0  0  0  0  0  0  0  0
   20.0620  -19.4570   -5.6800 C   0  0  0  0  0  0  0  0  0  0  0
   19.4320  -18.1970   -5.6520 C   0  0  0  0  0  0  0  0  0  0  0
   19.4770  -17.3970   -4.5020 C   0  0  0  0  0  0  0  0  0  0  0
   20.1530  -17.8570   -3.3650 C   0  0  0  0  0  0  0  0  0  0  0
   18.3230  -22.2460   -8.3180 C   0  0  0  0  0  0  0  0  0  0  0
   18.7070  -22.4910   -5.8490 C   0  0  0  0  0  0  0  0  0  0  0
   23.6190  -19.1910    0.2390 O   0  0  0  0  0  0  0  0  0  0  0
   24.6510  -20.0760   -0.2000 C   0  0  0  0  0  0  0  0  0  0  0
   16.8180  -17.7210   -0.8590 H   0  0  0  0  0  0  0  0  0  0  0
   18.4600  -18.3160   -1.1090 H   0  0  0  0  0  0  0  0  0  0  0
   17.8630  -19.8020    2.1950 H   0  0  0  0  0  0  0  0  0  0  0
   17.9100  -21.2900    1.2540 H   0  0  0  0  0  0  0  0  0  0  0
   16.2190  -19.5060    0.5420 H   0  0  0  0  0  0  0  0  0  0  0
   17.1940  -20.2580   -0.7230 H   0  0  0  0  0  0  0  0  0  0  0
   20.6700  -17.0210    2.9070 H   0  0  0  0  0  0  0  0  0  0  0
   19.6750  -15.7340    2.2270 H   0  0  0  0  0  0  0  0  0  0  0
   20.0080  -21.9940    0.5170 H   0  0  0  0  0  0  0  0  0  0  0
   21.8590  -17.5430    0.8930 H   0  0  0  0  0  0  0  0  0  0  0
   22.9330  -22.4590    0.5760 H   0  0  0  0  0  0  0  0  0  0  0
   23.6970  -24.7520   -3.2140 H   0  0  0  0  0  0  0  0  0  0  0
   21.3180  -21.5750   -5.5050 H   0  0  0  0  0  0  0  0  0  0  0
   17.6280  -20.8920   -6.8010 H   0  0  0  0  0  0  0  0  0  0  0
   19.0530  -16.3680    4.5620 H   0  0  0  0  0  0  0  0  0  0  0
   17.7020  -16.6280    3.4410 H   0  0  0  0  0  0  0  0  0  0  0
   18.6680  -18.0110    4.0050 H   0  0  0  0  0  0  0  0  0  0  0
   21.2700  -19.3990   -2.5400 H   0  0  0  0  0  0  0  0  0  0  0
   18.9380  -17.8560   -6.4770 H   0  0  0  0  0  0  0  0  0  0  0
   19.0240  -16.4830   -4.4940 H   0  0  0  0  0  0  0  0  0  0  0
   20.1960  -17.2770   -2.5270 H   0  0  0  0  0  0  0  0  0  0  0
   17.4580  -22.9060   -8.2420 H   0  0  0  0  0  0  0  0  0  0  0
   18.1570  -21.5320   -9.1250 H   0  0  0  0  0  0  0  0  0  0  0
   19.2130  -22.8360   -8.5400 H   0  0  0  0  0  0  0  0  0  0  0
   17.8670  -23.1850   -5.8250 H   0  0  0  0  0  0  0  0  0  0  0
   19.6320  -23.0500   -5.9940 H   0  0  0  0  0  0  0  0  0  0  0
   18.7500  -21.9610   -4.8980 H   0  0  0  0  0  0  0  0  0  0  0
   25.5950  -19.5300   -0.2100 H   0  0  0  0  0  0  0  0  0  0  0
   24.7470  -20.9230    0.4790 H   0  0  0  0  0  0  0  0  0  0  0
   24.4440  -20.4260   -1.2110 H   0  0  0  0  0  0  0  0  0  0  0
  1  2  2  0  0  0  0
  1  3  2  0  0  0  0
  1 26  1  0  0  0  0
  1 30  1  0  0  0  0
  4  5  1  0  0  0  0
  4  9  1  0  0  0  0
  4 11  1  0  0  0  0
  5  6  1  0  0  0  0
  5 10  2  0  0  0  0
  6  8  1  0  0  0  0
  6 38  1  0  0  0  0
  6 39  1  0  0  0  0
  7  8  1  0  0  0  0
  7 12  1  0  0  0  0
  7 40  1  0  0  0  0
  7 41  1  0  0  0  0
  8 42  1  0  0  0  0
  8 43  1  0  0  0  0
  9 27  1  0  0  0  0
  9 44  1  0  0  0  0
  9 45  1  0  0  0  0
 11 12  2  0  0  0  0
 11 16  1  0  0  0  0
 12 13  1  0  0  0  0
 13 14  2  0  0  0  0
 13 46  1  0  0  0  0
 14 15  1  0  0  0  0
 14 17  1  0  0  0  0
 15 16  2  0  0  0  0
 15 36  1  0  0  0  0
 16 47  1  0  0  0  0
 17 18  1  0  0  0  0
 17 48  1  0  0  0  0
 18 19  2  0  0  0  0
 18 23  1  0  0  0  0
 19 20  1  0  0  0  0
 20 21  2  0  0  0  0
 20 25  1  0  0  0  0
 21 22  1  0  0  0  0
 21 24  1  0  0  0  0
 22 23  2  0  0  0  0
 22 49  1  0  0  0  0
 25 29  1  0  0  0  0
 25 50  1  0  0  0  0
 26 34  1  0  0  0  0
 26 35  1  0  0  0  0
 26 51  1  0  0  0  0
 27 52  1  0  0  0  0
 27 53  1  0  0  0  0
 27 54  1  0  0  0  0
 28 29  2  0  0  0  0
 28 33  1  0  0  0  0
 28 55  1  0  0  0  0
 29 30  1  0  0  0  0
 30 31  2  0  0  0  0
 31 32  1  0  0  0  0
 31 56  1  0  0  0  0
 32 33  2  0  0  0  0
 32 57  1  0  0  0  0
 33 58  1  0  0  0  0
 34 59  1  0  0  0  0
 34 60  1  0  0  0  0
 34 61  1  0  0  0  0
 35 62  1  0  0  0  0
 35 63  1  0  0  0  0
 35 64  1  0  0  0  0
 36 37  1  0  0  0  0
 37 65  1  0  0  0  0
 37 66  1  0  0  0  0
 37 67  1  0  0  0  0
M  END
> <From>
www.bindingDB.org

> <BindingDB Reactant_set_id>
50940195

> <Ligand InChI>
InChI=1S/C26H30ClN5O4S/c1-5-32-21-14-22(36-4)20(13-17(21)9-8-12-24(32)33)30-26-28-15-18(27)25(31-26)29-19-10-6-7-11-23(19)37(34,35)16(2)3/h6-7,10-11,13-16H,5,8-9,12H2,1-4H3,(H2,28,29,30,31)

> <Ligand InChI Key>
ZNWUBQNDIPEESB-UHFFFAOYSA-N

> <BindingDB MonomerID>
50385602

> <BindingDB Ligand Name>
CHEMBL2042983

> <Target Name Assigned by Curator or DataSource>
ALK tyrosine kinase receptor

> <Target Source Organism According to Curator or DataSource>
Homo sapiens

> <Ki (nM)>


> <IC50 (nM)>
 30

> <Kd (nM)>


> <EC50 (nM)>


> <kon (M-1-s-1)>


> <koff (s-1)>


> <pH>


> <Temp C>


> <Curation/DataSource>
ChEMBL

> <Article DOI>
10.1021/ml100158s

> <PMID>
24900237

> <PubChem AID>


> <Patent Number>


> <Authors>
Ott, GR; Tripathy, R; Cheng, M; McHugh, R; Anzalone, AV; Underiner, TL; Curry, MA; Quail, MR; Lu, L; Wan, W; Angeles, TS; Albom, MS; Aimone, LD; Ator, MA; Ruggeri, BA; Dorsey, BD

> <Institution>
TBA

> <Link to Ligand in BindingDB>
http://www.bindingdb.org/bind/chemsearch/marvin/MolStructure.jsp?monomerid=50385602

> <Link to Ligand-Target Pair in BindingDB>
http://www.bindingdb.org/jsp/dbsearch/PrimarySearch_ki.jsp?energyterm=kJ/mole&tag=pol&polymerid=5809&target=ALK+tyrosine+kinase+receptor&column=ki&startPg=0&Increment=50&submit=Search

> <Link to Ligand-Target Pair in BindingDB>
http://www.bindingdb.org/jsp/dbsearch/PrimarySearch_ki.jsp?energyterm=kJ/mole&tag=r21&monomerid=50385602&enzyme=ALK+tyrosine+kinase+receptor&column=ki&startPg=0&Increment=50&submit=Search

> <Ligand HET ID in PDB>


> <PDB ID(s) for Ligand-Target Complex>


> <PubChem CID>
66830116

> <PubChem SID>
160864685

> <ChEBI ID of Ligand>


> <ChEMBL ID of Ligand>
CHEMBL2042983

> <DrugBank ID of Ligand>


> <IUPHAR_GRAC ID of Ligand>


> <KEGG ID of Ligand>


> <ZINC ID of Ligand>
ZINC84714234

> <Number of Protein Chains in Target (>1 implies a multichain complex)>
1

> <BindingDB Target Chain Sequence>
MGAIGLLWLLPLLLSTAAVGSGMGTGQRAGSPAAGPPLQPREPLSYSRLQRKSLAVDFVVPSLFRVYARDLLLPPSSSELKAGRPEARGSLALDCAPLLRLLGPAPGVSWTAGSPAPAEARTLSRVLKGGSVRKLRRAKQLVLELGEEAILEGCVGPPGEAAVGLLQFNLSELFSWWIRQGEGRLRIRLMPEKKASEVGREGRLSAAIRASQPRLLFQIFGTGHSSLESPTNMPSPSPDYFTWNLTWIMKDSFPFLSHRSRYGLECSFDFPCELEYSPPLHDLRNQSWSWRRIPSEEASQMDLLDGPGAERSKEMPRGSFLLLNTSADSKHTILSPWMRSSSEHCTLAVSVHRHLQPSGRYIAQLLPHNEAAREILLMPTPGKHGWTVLQGRIGRPDNPFRVALEYISSGNRSLSAVDFFALKNCSEGTSPGSKMALQSSFTCWNGTVLQLGQACDFHQDCAQGEDESQMCRKLPVGFYCNFEDGFCGWTQGTLSPHTPQWQVRTLKDARFQDHQDHALLLSTTDVPASESATVTSATFPAPIKSSPCELRMSWLIRGVLRGNVSLVLVENKTGKEQGRMVWHVAAYEGLSLWQWMVLPLLDVSDRFWLQMVAWWGQGSRAIVAFDNISISLDCYLTISGEDKILQNTAPKSRNLFERNPNKELKPGENSPRQTPIFDPTVHWLFTTCGASGPHGPTQAQCNNAYQNSNLSVEVGSEGPLKGIQIWKVPATDTYSISGYGAAGGKGGKNTMMRSHGVSVLGIFNLEKDDMLYILVGQQGEDACPSTNQLIQKVCIGENNVIEEEIRVNRSVHEWAGGGGGGGGATYVFKMKDGVPVPLIIAAGGGGRAYGAKTDTFHPERLENNSSVLGLNGNSGAAGGGGGWNDNTSLLWAGKSLQEGATGGHSCPQAMKKWGWETRGGFGGGGGGCSSGGGGGGYIGGNAASNNDPEMDGEDGVSFISPLGILYTPALKVMEGHGEVNIKHYLNCSHCEVDECHMDPESHKVICFCDHGTVLAEDGVSCIVSPTPEPHLPLSLILSVVTSALVAALVLAFSGIMIVYRRKHQELQAMQMELQSPEYKLSKLRTSTIMTDYNPNYCFAGKTSSISDLKEVPRKNITLIRGLGHGAFGEVYEGQVSGMPNDPSPLQVAVKTLPEVCSEQDELDFLMEALIISKFNHQNIVRCIGVSLQSLPRFILLELMAGGDLKSFLRETRPRPSQPSSLAMLDLLHVARDIACGCQYLEENHFIHRDIAARNCLLTCPGPGRVAKIGDFGMARDIYRASYYRKGGCAMLPVKWMPPEAFMEGIFTSKTDTWSFGVLLWEIFSLGYMPYPSKSNQEVLEFVTSGGRMDPPKNCPGPVYRIMTQCWQHQPEDRPNFAIILERIEYCTQDPDVINTALPIEYGPLVEEEEKVPVRPKDPEGVPPLLVSQQAKREEERSPAAPPPLPTTSSGKAAKKPTAAEISVRVPRGPAVEGGHVNMAFSQSNPPSELHKVHGSRNKPTSLWNPTYGSWFTEKPTKKNNPIAKKEPHDRGNLGLEGSCTVPPNVATGRLPGASLLLEPSSLTANMKEVPLFRLRHFPCGNVNYGYQQQGLPLEAATAPGAGHYEDTILKSKNSMNQPGP

> <PDB ID(s) of Target Chain>
2XB7,2XBA,3AOX,5FTO,5FTQ,6E0R,6EBW,6EDL,6MX8

> <UniProt (SwissProt) Recommended Name of Target Chain>
ALK tyrosine kinase receptor

> <UniProt (SwissProt) Entry Name of Target Chain>
ALK_HUMAN

> <UniProt (SwissProt) Primary ID of Target Chain>
Q9UM73

> <UniProt (SwissProt) Secondary ID(s) of Target Chain>
Q4ZFX9,Q53QQ6,Q53RZ4,Q59FI3,Q9Y4K6

> <UniProt (SwissProt) Alternative ID(s) of Target Chain>


> <UniProt (TrEMBL) Submitted Name of Target Chain>


> <UniProt (TrEMBL) Entry Name of Target Chain>


> <UniProt (TrEMBL) Primary ID of Target Chain>


> <UniProt (TrEMBL) Secondary ID(s) of Target Chain>


> <UniProt (TrEMBL) Alternative ID(s) of Target Chain>


$$$$
BindingDB_50436850_mol_1

Vconf v2.0 Academic SN VC001-00000579
 74 77  0  0  0  0  0  0  0  0999 V2000
   20.0690   -7.4970    2.1170 N   0  0  0  0  0  0  0  0  0  0  0
   21.2760   -7.5600    1.2780 C   0  0  0  0  0  0  0  0  0  0  0
   21.6910   -9.0190    1.0340 C   0  0  0  0  0  0  0  0  0  0  0
   21.9470   -9.7240    2.3820 C   0  0  0  0  0  0  0  0  0  0  0
   20.6880   -9.6010    3.2650 C   0  0  0  0  0  0  0  0  0  0  0
   20.3090   -8.1200    3.4280 C   0  0  0  0  0  0  0  0  0  0  0
   22.3660  -11.1400    2.1940 C   0  0  0  0  0  0  0  0  0  0  0
   21.4810  -12.0360    1.5570 C   0  0  0  0  0  0  0  0  0  0  0
   21.8420  -13.3700    1.3100 C   0  0  0  0  0  0  0  0  0  0  0
   23.0970  -13.8440    1.7400 C   0  0  0  0  0  0  0  0  0  0  0
   23.9810  -12.9650    2.3910 C   0  0  0  0  0  0  0  0  0  0  0
   23.6330  -11.6170    2.6140 C   0  0  0  0  0  0  0  0  0  0  0
   20.9570  -14.1750    0.6590 O   0  0  0  0  0  0  0  0  0  0  0
   21.0290  -14.3220   -0.7660 C   0  0  0  0  0  0  0  0  0  0  0
   23.4870  -15.1180    1.4950 N   0  0  0  0  0  0  0  0  0  0  0
   24.1720  -15.4670    0.3820 C   0  0  0  0  0  0  0  0  0  0  0
   24.5090  -16.7570    0.1570 N   0  0  0  0  0  0  0  0  0  0  0
   25.1540  -17.1320   -0.9740 C   0  0  0  0  0  0  0  0  0  0  0
   25.4840  -16.1820   -1.9580 C   0  0  0  0  0  0  0  0  0  0  0
   25.1410  -14.8360   -1.7090 C   0  0  0  0  0  0  0  0  0  0  0
   24.5020  -14.5470   -0.5540 N   0  0  0  0  0  0  0  0  0  0  0
   26.2690  -16.6850   -3.3730 Cl  0  0  0  0  0  0  0  0  0  0  0
   25.3780  -13.8670   -2.6400 N   0  0  0  0  0  0  0  0  0  0  0
   25.1870  -12.5130   -2.5620 C   0  0  0  0  0  0  0  0  0  0  0
   25.2200  -11.7770   -3.7730 C   0  0  0  0  0  0  0  0  0  0  0
   25.0150  -10.3840   -3.7600 C   0  0  0  0  0  0  0  0  0  0  0
   24.7890   -9.7020   -2.5550 C   0  0  0  0  0  0  0  0  0  0  0
   24.7660  -10.4160   -1.3500 C   0  0  0  0  0  0  0  0  0  0  0
   24.9630  -11.8050   -1.3550 C   0  0  0  0  0  0  0  0  0  0  0
   25.4250  -12.5460   -5.3250 S   0  0  0  0  0  0  0  0  0  0  0
   23.7900  -13.1020   -5.8650 C   0  0  0  0  0  0  0  0  0  0  0
   25.7730  -11.4250   -6.3990 O   0  0  0  0  0  0  0  0  0  0  0
   26.3240  -13.8550   -5.2370 O   0  0  0  0  0  0  0  0  0  0  0
   23.9140  -13.7600   -7.2460 C   0  0  0  0  0  0  0  0  0  0  0
   23.1620  -14.0950   -4.8730 C   0  0  0  0  0  0  0  0  0  0  0
   19.9590  -15.3350   -1.1860 C   0  0  0  0  0  0  0  0  0  0  0
   20.8030  -12.9950   -1.5100 C   0  0  0  0  0  0  0  0  0  0  0
   24.6120  -10.7310    3.2700 C   0  0  0  0  0  0  0  0  0  0  0
   19.3480   -8.0500    1.6480 H   0  0  0  0  0  0  0  0  0  0  0
   21.0640   -7.0870    0.3190 H   0  0  0  0  0  0  0  0  0  0  0
   22.0910   -7.0210    1.7640 H   0  0  0  0  0  0  0  0  0  0  0
   22.6010   -9.0300    0.4330 H   0  0  0  0  0  0  0  0  0  0  0
   20.8950   -9.5210    0.4830 H   0  0  0  0  0  0  0  0  0  0  0
   22.7340   -9.1620    2.8840 H   0  0  0  0  0  0  0  0  0  0  0
   20.8860  -10.0260    4.2510 H   0  0  0  0  0  0  0  0  0  0  0
   19.8490  -10.1300    2.8120 H   0  0  0  0  0  0  0  0  0  0  0
   19.3980   -8.0510    4.0230 H   0  0  0  0  0  0  0  0  0  0  0
   21.1090   -7.5900    3.9470 H   0  0  0  0  0  0  0  0  0  0  0
   20.5660  -11.7090    1.2450 H   0  0  0  0  0  0  0  0  0  0  0
   24.8970  -13.3070    2.6860 H   0  0  0  0  0  0  0  0  0  0  0
   21.9990  -14.7210   -1.0570 H   0  0  0  0  0  0  0  0  0  0  0
   23.2500  -15.8090    2.1310 H   0  0  0  0  0  0  0  0  0  0  0
   25.3880  -18.1170   -1.1080 H   0  0  0  0  0  0  0  0  0  0  0
   25.6930  -14.1990   -3.4920 H   0  0  0  0  0  0  0  0  0  0  0
   25.0220   -9.8600   -4.6360 H   0  0  0  0  0  0  0  0  0  0  0
   24.6440   -8.6920   -2.5550 H   0  0  0  0  0  0  0  0  0  0  0
   24.6130   -9.9270   -0.4670 H   0  0  0  0  0  0  0  0  0  0  0
   24.9690  -12.2810   -0.4560 H   0  0  0  0  0  0  0  0  0  0  0
   23.1380  -12.2320   -5.9500 H   0  0  0  0  0  0  0  0  0  0  0
   22.9270  -14.0460   -7.6110 H   0  0  0  0  0  0  0  0  0  0  0
   24.3630  -13.0540   -7.9450 H   0  0  0  0  0  0  0  0  0  0  0
   24.5460  -14.6460   -7.1770 H   0  0  0  0  0  0  0  0  0  0  0
   22.2200  -14.4700   -5.2730 H   0  0  0  0  0  0  0  0  0  0  0
   23.8410  -14.9310   -4.7070 H   0  0  0  0  0  0  0  0  0  0  0
   22.9630  -13.5950   -3.9250 H   0  0  0  0  0  0  0  0  0  0  0
   20.0310  -15.5250   -2.2570 H   0  0  0  0  0  0  0  0  0  0  0
   20.1140  -16.2700   -0.6460 H   0  0  0  0  0  0  0  0  0  0  0
   18.9680  -14.9450   -0.9530 H   0  0  0  0  0  0  0  0  0  0  0
   20.7590  -13.1780   -2.5840 H   0  0  0  0  0  0  0  0  0  0  0
   19.8670  -12.5430   -1.1820 H   0  0  0  0  0  0  0  0  0  0  0
   21.6270  -12.3110   -1.3050 H   0  0  0  0  0  0  0  0  0  0  0
   25.5300  -11.2650    3.5230 H   0  0  0  0  0  0  0  0  0  0  0
   24.8660   -9.9080    2.6000 H   0  0  0  0  0  0  0  0  0  0  0
   24.1840  -10.3290    4.1900 H   0  0  0  0  0  0  0  0  0  0  0
  1  2  1  0  0  0  0
  1  6  1  0  0  0  0
  1 39  1  0  0  0  0
  2  3  1  0  0  0  0
  2 40  1  0  0  0  0
  2 41  1  0  0  0  0
  3  4  1  0  0  0  0
  3 42  1  0  0  0  0
  3 43  1  0  0  0  0
  4  5  1  0  0  0  0
  4  7  1  0  0  0  0
  4 44  1  0  0  0  0
  5  6  1  0  0  0  0
  5 45  1  0  0  0  0
  5 46  1  0  0  0  0
  6 47  1  0  0  0  0
  6 48  1  0  0  0  0
  7  8  2  0  0  0  0
  7 12  1  0  0  0  0
  8  9  1  0  0  0  0
  8 49  1  0  0  0  0
  9 10  2  0  0  0  0
  9 13  1  0  0  0  0
 10 11  1  0  0  0  0
 10 15  1  0  0  0  0
 11 12  2  0  0  0  0
 11 50  1  0  0  0  0
 12 38  1  0  0  0  0
 13 14  1  0  0  0  0
 14 36  1  0  0  0  0
 14 37  1  0  0  0  0
 14 51  1  0  0  0  0
 15 16  1  0  0  0  0
 15 52  1  0  0  0  0
 16 17  2  0  0  0  0
 16 21  1  0  0  0  0
 17 18  1  0  0  0  0
 18 19  2  0  0  0  0
 18 53  1  0  0  0  0
 19 20  1  0  0  0  0
 19 22  1  0  0  0  0
 20 21  2  0  0  0  0
 20 23  1  0  0  0  0
 23 24  1  0  0  0  0
 23 54  1  0  0  0  0
 24 25  2  0  0  0  0
 24 29  1  0  0  0  0
 25 26  1  0  0  0  0
 25 30  1  0  0  0  0
 26 27  2  0  0  0  0
 26 55  1  0  0  0  0
 27 28  1  0  0  0  0
 27 56  1  0  0  0  0
 28 29  2  0  0  0  0
 28 57  1  0  0  0  0
 29 58  1  0  0  0  0
 30 31  1  0  0  0  0
 30 32  2  0  0  0  0
 30 33  2  0  0  0  0
 31 34  1  0  0  0  0
 31 35  1  0  0  0  0
 31 59  1  0  0  0  0
 34 60  1  0  0  0  0
 34 61  1  0  0  0  0
 34 62  1  0  0  0  0
 35 63  1  0  0  0  0
 35 64  1  0  0  0  0
 35 65  1  0  0  0  0
 36 66  1  0  0  0  0
 36 67  1  0  0  0  0
 36 68  1  0  0  0  0
 37 69  1  0  0  0  0
 37 70  1  0  0  0  0
 37 71  1  0  0  0  0
 38 72  1  0  0  0  0
 38 73  1  0  0  0  0
 38 74  1  0  0  0  0
M  END
> <From>
www.bindingDB.org

> <BindingDB Reactant_set_id>
51069526

> <Ligand InChI>
InChI=1S/C28H36ClN5O3S/c1-17(2)37-25-15-21(20-10-12-30-13-11-20)19(5)14-24(25)33-28-31-16-22(29)27(34-28)32-23-8-6-7-9-26(23)38(35,36)18(3)4/h6-9,14-18,20,30H,10-13H2,1-5H3,(H2,31,32,33,34)

> <Ligand InChI Key>
VERWOWGGCGHDQE-UHFFFAOYSA-N

> <BindingDB MonomerID>
50436850

> <BindingDB Ligand Name>
CERITINIB::CHEMBL2403108::LDK378::US10053458, Comparative Example 2::US9809572, Example 16

> <Target Name Assigned by Curator or DataSource>
ALK tyrosine kinase receptor

> <Target Source Organism According to Curator or DataSource>
Homo sapiens

> <Ki (nM)>


> <IC50 (nM)>
 41

> <Kd (nM)>


> <EC50 (nM)>


> <kon (M-1-s-1)>


> <koff (s-1)>


> <pH>


> <Temp C>


> <Curation/DataSource>
ChEMBL

> <Article DOI>
10.1021/jm400402q

> <PMID>
23742252

> <PubChem AID>


> <Patent Number>


> <Authors>
Marsilje, TH; Pei, W; Chen, B; Lu, W; Uno, T; Jin, Y; Jiang, T; Kim, S; Li, N; Warmuth, M; Sarkisova, Y; Sun, F; Steffy, A; Pferdekamper, AC; Li, AG; Joseph, SB; Kim, Y; Liu, B; Tuntland, T; Cui, X; Gray, NS; Steensma, R; Wan, Y; Jiang, J; Chopiuk, G; Li, J; Gordon, WP; Richmond, W; Johnson, K; Chang, J; Groessl, T; He, YQ; Phimister, A; Aycinena, A; Lee, CC; Bursulaya, B; Karanewsky, DS; Seidel, HM; Harris, JL; Michellys, PY

> <Institution>
Genomics Institute of the Novartis Research Foundation 

> <Link to Ligand in BindingDB>
http://www.bindingdb.org/bind/chemsearch/marvin/MolStructure.jsp?monomerid=50436850

> <Link to Ligand-Target Pair in BindingDB>
http://www.bindingdb.org/jsp/dbsearch/PrimarySearch_ki.jsp?energyterm=kJ/mole&tag=pol&polymerid=5809&target=ALK+tyrosine+kinase+receptor&column=ki&startPg=0&Increment=50&submit=Search

> <Link to Ligand-Target Pair in BindingDB>
http://www.bindingdb.org/jsp/dbsearch/PrimarySearch_ki.jsp?energyterm=kJ/mole&tag=r21&monomerid=50436850&enzyme=ALK+tyrosine+kinase+receptor&column=ki&startPg=0&Increment=50&submit=Search

> <Ligand HET ID in PDB>
4MK

> <PDB ID(s) for Ligand-Target Complex>
4MKC

> <PubChem CID>
57379345

> <PubChem SID>
175449167

> <ChEBI ID of Ligand>


> <ChEMBL ID of Ligand>
CHEMBL2403108

> <DrugBank ID of Ligand>


> <IUPHAR_GRAC ID of Ligand>


> <KEGG ID of Ligand>


> <ZINC ID of Ligand>
ZINC96272772

> <Number of Protein Chains in Target (>1 implies a multichain complex)>
1

> <BindingDB Target Chain Sequence>
MGAIGLLWLLPLLLSTAAVGSGMGTGQRAGSPAAGPPLQPREPLSYSRLQRKSLAVDFVVPSLFRVYARDLLLPPSSSELKAGRPEARGSLALDCAPLLRLLGPAPGVSWTAGSPAPAEARTLSRVLKGGSVRKLRRAKQLVLELGEEAILEGCVGPPGEAAVGLLQFNLSELFSWWIRQGEGRLRIRLMPEKKASEVGREGRLSAAIRASQPRLLFQIFGTGHSSLESPTNMPSPSPDYFTWNLTWIMKDSFPFLSHRSRYGLECSFDFPCELEYSPPLHDLRNQSWSWRRIPSEEASQMDLLDGPGAERSKEMPRGSFLLLNTSADSKHTILSPWMRSSSEHCTLAVSVHRHLQPSGRYIAQLLPHNEAAREILLMPTPGKHGWTVLQGRIGRPDNPFRVALEYISSGNRSLSAVDFFALKNCSEGTSPGSKMALQSSFTCWNGTVLQLGQACDFHQDCAQGEDESQMCRKLPVGFYCNFEDGFCGWTQGTLSPHTPQWQVRTLKDARFQDHQDHALLLSTTDVPASESATVTSATFPAPIKSSPCELRMSWLIRGVLRGNVSLVLVENKTGKEQGRMVWHVAAYEGLSLWQWMVLPLLDVSDRFWLQMVAWWGQGSRAIVAFDNISISLDCYLTISGEDKILQNTAPKSRNLFERNPNKELKPGENSPRQTPIFDPTVHWLFTTCGASGPHGPTQAQCNNAYQNSNLSVEVGSEGPLKGIQIWKVPATDTYSISGYGAAGGKGGKNTMMRSHGVSVLGIFNLEKDDMLYILVGQQGEDACPSTNQLIQKVCIGENNVIEEEIRVNRSVHEWAGGGGGGGGATYVFKMKDGVPVPLIIAAGGGGRAYGAKTDTFHPERLENNSSVLGLNGNSGAAGGGGGWNDNTSLLWAGKSLQEGATGGHSCPQAMKKWGWETRGGFGGGGGGCSSGGGGGGYIGGNAASNNDPEMDGEDGVSFISPLGILYTPALKVMEGHGEVNIKHYLNCSHCEVDECHMDPESHKVICFCDHGTVLAEDGVSCIVSPTPEPHLPLSLILSVVTSALVAALVLAFSGIMIVYRRKHQELQAMQMELQSPEYKLSKLRTSTIMTDYNPNYCFAGKTSSISDLKEVPRKNITLIRGLGHGAFGEVYEGQVSGMPNDPSPLQVAVKTLPEVCSEQDELDFLMEALIISKFNHQNIVRCIGVSLQSLPRFILLELMAGGDLKSFLRETRPRPSQPSSLAMLDLLHVARDIACGCQYLEENHFIHRDIAARNCLLTCPGPGRVAKIGDFGMARDIYRASYYRKGGCAMLPVKWMPPEAFMEGIFTSKTDTWSFGVLLWEIFSLGYMPYPSKSNQEVLEFVTSGGRMDPPKNCPGPVYRIMTQCWQHQPEDRPNFAIILERIEYCTQDPDVINTALPIEYGPLVEEEEKVPVRPKDPEGVPPLLVSQQAKREEERSPAAPPPLPTTSSGKAAKKPTAAEISVRVPRGPAVEGGHVNMAFSQSNPPSELHKVHGSRNKPTSLWNPTYGSWFTEKPTKKNNPIAKKEPHDRGNLGLEGSCTVPPNVATGRLPGASLLLEPSSLTANMKEVPLFRLRHFPCGNVNYGYQQQGLPLEAATAPGAGHYEDTILKSKNSMNQPGP

> <PDB ID(s) of Target Chain>
2XB7,2XBA,3AOX,5FTO,5FTQ,6E0R,6EBW,6EDL,6MX8

> <UniProt (SwissProt) Recommended Name of Target Chain>
ALK tyrosine kinase receptor

> <UniProt (SwissProt) Entry Name of Target Chain>
ALK_HUMAN

> <UniProt (SwissProt) Primary ID of Target Chain>
Q9UM73

> <UniProt (SwissProt) Secondary ID(s) of Target Chain>
Q4ZFX9,Q53QQ6,Q53RZ4,Q59FI3,Q9Y4K6

> <UniProt (SwissProt) Alternative ID(s) of Target Chain>


> <UniProt (TrEMBL) Submitted Name of Target Chain>


> <UniProt (TrEMBL) Entry Name of Target Chain>


> <UniProt (TrEMBL) Primary ID of Target Chain>


> <UniProt (TrEMBL) Secondary ID(s) of Target Chain>


> <UniProt (TrEMBL) Alternative ID(s) of Target Chain>


$$$$
BindingDB_50436851_mol_1

Vconf v2.0 Academic SN VC001-00000579
 69 72  0  0  0  0  0  0  0  0999 V2000
    7.4430  -21.1460    0.6280 O   0  0  0  0  0  0  0  0  0  0  0
    8.3280  -22.0470    1.5940 S   0  0  0  0  0  0  0  0  0  0  0
    9.9090  -22.0710    1.4160 O   0  0  0  0  0  0  0  0  0  0  0
    7.7610  -23.6980    1.6350 C   0  0  0  0  0  0  0  0  0  0  0
    8.7180  -24.7030    1.8810 C   0  0  0  0  0  0  0  0  0  0  0
    8.3450  -26.0540    1.9230 C   0  0  0  0  0  0  0  0  0  0  0
    7.0030  -26.4090    1.7330 C   0  0  0  0  0  0  0  0  0  0  0
    6.0420  -25.4130    1.5050 C   0  0  0  0  0  0  0  0  0  0  0
    6.3960  -24.0420    1.4570 C   0  0  0  0  0  0  0  0  0  0  0
    5.5130  -23.0170    1.2400 N   0  0  0  0  0  0  0  0  0  0  0
    4.1490  -23.0180    1.1680 C   0  0  0  0  0  0  0  0  0  0  0
    3.4150  -24.1260    1.4320 N   0  0  0  0  0  0  0  0  0  0  0
    2.0610  -24.1600    1.4010 C   0  0  0  0  0  0  0  0  0  0  0
    1.3980  -23.0240    1.0930 N   0  0  0  0  0  0  0  0  0  0  0
    2.0550  -21.8740    0.8160 C   0  0  0  0  0  0  0  0  0  0  0
    3.4590  -21.8280    0.8490 C   0  0  0  0  0  0  0  0  0  0  0
    8.1540  -21.3440    3.2510 C   0  0  0  0  0  0  0  0  0  0  0
    8.6720  -19.8970    3.2570 C   0  0  0  0  0  0  0  0  0  0  0
    6.6950  -21.3650    3.7300 C   0  0  0  0  0  0  0  0  0  0  0
    1.3600  -25.2840    1.6780 N   0  0  0  0  0  0  0  0  0  0  0
    1.9360  -26.4720    1.9830 C   0  0  0  0  0  0  0  0  0  0  0
    2.7300  -27.1860    1.0660 C   0  0  0  0  0  0  0  0  0  0  0
    3.3140  -28.3500    1.4420 N   0  0  0  0  0  0  0  0  0  0  0
    3.1550  -28.8640    2.6830 C   0  0  0  0  0  0  0  0  0  0  0
    2.3830  -28.1990    3.5750 N   0  0  0  0  0  0  0  0  0  0  0
    1.7710  -27.0330    3.2580 C   0  0  0  0  0  0  0  0  0  0  0
    2.9380  -26.6680   -0.1760 O   0  0  0  0  0  0  0  0  0  0  0
    3.8310  -27.2970   -1.0990 C   0  0  0  0  0  0  0  0  0  0  0
    3.8230  -30.1190    3.0590 C   0  0  0  0  0  0  0  0  0  0  0
    3.2600  -31.3090    2.2600 C   0  0  0  0  0  0  0  0  0  0  0
    3.9920  -32.5960    2.6700 C   0  0  0  0  0  0  0  0  0  0  0
    5.4370  -32.4650    2.4230 N   0  0  0  0  0  0  0  0  0  0  0
    6.0000  -31.3660    3.2220 C   0  0  0  0  0  0  0  0  0  0  0
    5.3460  -30.0320    2.8330 C   0  0  0  0  0  0  0  0  0  0  0
    3.1740  -28.5280   -1.7410 C   0  0  0  0  0  0  0  0  0  0  0
    4.1840  -26.2640   -2.1770 C   0  0  0  0  0  0  0  0  0  0  0
    4.2430  -20.3680    0.4980 Cl  0  0  0  0  0  0  0  0  0  0  0
    9.6960  -24.4500    2.0270 H   0  0  0  0  0  0  0  0  0  0  0
    9.0480  -26.7750    2.0860 H   0  0  0  0  0  0  0  0  0  0  0
    6.7260  -27.3920    1.7590 H   0  0  0  0  0  0  0  0  0  0  0
    5.0850  -25.7150    1.3570 H   0  0  0  0  0  0  0  0  0  0  0
    5.9150  -22.1440    1.1320 H   0  0  0  0  0  0  0  0  0  0  0
    1.5160  -21.0390    0.5820 H   0  0  0  0  0  0  0  0  0  0  0
    8.7580  -21.9330    3.9410 H   0  0  0  0  0  0  0  0  0  0  0
    8.6000  -19.4840    4.2630 H   0  0  0  0  0  0  0  0  0  0  0
    9.7140  -19.8790    2.9380 H   0  0  0  0  0  0  0  0  0  0  0
    8.0770  -19.2920    2.5730 H   0  0  0  0  0  0  0  0  0  0  0
    6.6240  -20.8930    4.7100 H   0  0  0  0  0  0  0  0  0  0  0
    6.0670  -20.8220    3.0220 H   0  0  0  0  0  0  0  0  0  0  0
    6.3480  -22.3950    3.8080 H   0  0  0  0  0  0  0  0  0  0  0
    0.3930  -25.2270    1.6860 H   0  0  0  0  0  0  0  0  0  0  0
    1.2030  -26.5570    3.9590 H   0  0  0  0  0  0  0  0  0  0  0
    4.7550  -27.5960   -0.5980 H   0  0  0  0  0  0  0  0  0  0  0
    3.6420  -30.3040    4.1190 H   0  0  0  0  0  0  0  0  0  0  0
    3.3990  -31.1440    1.1900 H   0  0  0  0  0  0  0  0  0  0  0
    2.1950  -31.4230    2.4680 H   0  0  0  0  0  0  0  0  0  0  0
    3.8130  -32.7970    3.7270 H   0  0  0  0  0  0  0  0  0  0  0
    3.6050  -33.4280    2.0820 H   0  0  0  0  0  0  0  0  0  0  0
    5.8740  -33.3290    2.7530 H   0  0  0  0  0  0  0  0  0  0  0
    7.0730  -31.3070    3.0350 H   0  0  0  0  0  0  0  0  0  0  0
    5.8370  -31.5570    4.2850 H   0  0  0  0  0  0  0  0  0  0  0
    5.5580  -29.8290    1.7810 H   0  0  0  0  0  0  0  0  0  0  0
    5.7690  -29.2320    3.4430 H   0  0  0  0  0  0  0  0  0  0  0
    3.8640  -28.9870   -2.4490 H   0  0  0  0  0  0  0  0  0  0  0
    2.9190  -29.2560   -0.9700 H   0  0  0  0  0  0  0  0  0  0  0
    2.2650  -28.2290   -2.2630 H   0  0  0  0  0  0  0  0  0  0  0
    4.8520  -26.7110   -2.9140 H   0  0  0  0  0  0  0  0  0  0  0
    3.2740  -25.9220   -2.6720 H   0  0  0  0  0  0  0  0  0  0  0
    4.6790  -25.4120   -1.7090 H   0  0  0  0  0  0  0  0  0  0  0
  1  2  2  0  0  0  0
  2  3  2  0  0  0  0
  2  4  1  0  0  0  0
  2 17  1  0  0  0  0
  4  5  2  0  0  0  0
  4  9  1  0  0  0  0
  5  6  1  0  0  0  0
  5 38  1  0  0  0  0
  6  7  2  0  0  0  0
  6 39  1  0  0  0  0
  7  8  1  0  0  0  0
  7 40  1  0  0  0  0
  8  9  2  0  0  0  0
  8 41  1  0  0  0  0
  9 10  1  0  0  0  0
 10 11  1  0  0  0  0
 10 42  1  0  0  0  0
 11 12  2  0  0  0  0
 11 16  1  0  0  0  0
 12 13  1  0  0  0  0
 13 14  2  0  0  0  0
 13 20  1  0  0  0  0
 14 15  1  0  0  0  0
 15 16  2  0  0  0  0
 15 43  1  0  0  0  0
 16 37  1  0  0  0  0
 17 18  1  0  0  0  0
 17 19  1  0  0  0  0
 17 44  1  0  0  0  0
 18 45  1  0  0  0  0
 18 46  1  0  0  0  0
 18 47  1  0  0  0  0
 19 48  1  0  0  0  0
 19 49  1  0  0  0  0
 19 50  1  0  0  0  0
 20 21  1  0  0  0  0
 20 51  1  0  0  0  0
 21 22  2  0  0  0  0
 21 26  1  0  0  0  0
 22 23  1  0  0  0  0
 22 27  1  0  0  0  0
 23 24  2  0  0  0  0
 24 25  1  0  0  0  0
 24 29  1  0  0  0  0
 25 26  2  0  0  0  0
 26 52  1  0  0  0  0
 27 28  1  0  0  0  0
 28 35  1  0  0  0  0
 28 36  1  0  0  0  0
 28 53  1  0  0  0  0
 29 30  1  0  0  0  0
 29 34  1  0  0  0  0
 29 54  1  0  0  0  0
 30 31  1  0  0  0  0
 30 55  1  0  0  0  0
 30 56  1  0  0  0  0
 31 32  1  0  0  0  0
 31 57  1  0  0  0  0
 31 58  1  0  0  0  0
 32 33  1  0  0  0  0
 32 59  1  0  0  0  0
 33 34  1  0  0  0  0
 33 60  1  0  0  0  0
 33 61  1  0  0  0  0
 34 62  1  0  0  0  0
 34 63  1  0  0  0  0
 35 64  1  0  0  0  0
 35 65  1  0  0  0  0
 35 66  1  0  0  0  0
 36 67  1  0  0  0  0
 36 68  1  0  0  0  0
 36 69  1  0  0  0  0
M  END
> <From>
www.bindingDB.org

> <BindingDB Reactant_set_id>
51069464

> <Ligand InChI>
InChI=1S/C25H32ClN7O3S/c1-15(2)36-24-20(14-28-22(32-24)17-9-11-27-12-10-17)31-25-29-13-18(26)23(33-25)30-19-7-5-6-8-21(19)37(34,35)16(3)4/h5-8,13-17,27H,9-12H2,1-4H3,(H2,29,30,31,33)

> <Ligand InChI Key>
UAVBPSVJXCTZOC-UHFFFAOYSA-N

> <BindingDB MonomerID>
50436851

> <BindingDB Ligand Name>
CHEMBL2403831

> <Target Name Assigned by Curator or DataSource>
ALK tyrosine kinase receptor

> <Target Source Organism According to Curator or DataSource>
Homo sapiens

> <Ki (nM)>


> <IC50 (nM)>
 36

> <Kd (nM)>


> <EC50 (nM)>


> <kon (M-1-s-1)>


> <koff (s-1)>


> <pH>


> <Temp C>


> <Curation/DataSource>
ChEMBL

> <Article DOI>
10.1021/jm400402q

> <PMID>
23742252

> <PubChem AID>


> <Patent Number>


> <Authors>
Marsilje, TH; Pei, W; Chen, B; Lu, W; Uno, T; Jin, Y; Jiang, T; Kim, S; Li, N; Warmuth, M; Sarkisova, Y; Sun, F; Steffy, A; Pferdekamper, AC; Li, AG; Joseph, SB; Kim, Y; Liu, B; Tuntland, T; Cui, X; Gray, NS; Steensma, R; Wan, Y; Jiang, J; Chopiuk, G; Li, J; Gordon, WP; Richmond, W; Johnson, K; Chang, J; Groessl, T; He, YQ; Phimister, A; Aycinena, A; Lee, CC; Bursulaya, B; Karanewsky, DS; Seidel, HM; Harris, JL; Michellys, PY

> <Institution>
Genomics Institute of the Novartis Research Foundation 

> <Link to Ligand in BindingDB>
http://www.bindingdb.org/bind/chemsearch/marvin/MolStructure.jsp?monomerid=50436851

> <Link to Ligand-Target Pair in BindingDB>
http://www.bindingdb.org/jsp/dbsearch/PrimarySearch_ki.jsp?energyterm=kJ/mole&tag=pol&polymerid=5809&target=ALK+tyrosine+kinase+receptor&column=ki&startPg=0&Increment=50&submit=Search

> <Link to Ligand-Target Pair in BindingDB>
http://www.bindingdb.org/jsp/dbsearch/PrimarySearch_ki.jsp?energyterm=kJ/mole&tag=r21&monomerid=50436851&enzyme=ALK+tyrosine+kinase+receptor&column=ki&startPg=0&Increment=50&submit=Search

> <Ligand HET ID in PDB>


> <PDB ID(s) for Ligand-Target Complex>


> <PubChem CID>
59764390

> <PubChem SID>
175449168

> <ChEBI ID of Ligand>


> <ChEMBL ID of Ligand>
CHEMBL2403831

> <DrugBank ID of Ligand>


> <IUPHAR_GRAC ID of Ligand>


> <KEGG ID of Ligand>


> <ZINC ID of Ligand>
ZINC96272773

> <Number of Protein Chains in Target (>1 implies a multichain complex)>
1

> <BindingDB Target Chain Sequence>
MGAIGLLWLLPLLLSTAAVGSGMGTGQRAGSPAAGPPLQPREPLSYSRLQRKSLAVDFVVPSLFRVYARDLLLPPSSSELKAGRPEARGSLALDCAPLLRLLGPAPGVSWTAGSPAPAEARTLSRVLKGGSVRKLRRAKQLVLELGEEAILEGCVGPPGEAAVGLLQFNLSELFSWWIRQGEGRLRIRLMPEKKASEVGREGRLSAAIRASQPRLLFQIFGTGHSSLESPTNMPSPSPDYFTWNLTWIMKDSFPFLSHRSRYGLECSFDFPCELEYSPPLHDLRNQSWSWRRIPSEEASQMDLLDGPGAERSKEMPRGSFLLLNTSADSKHTILSPWMRSSSEHCTLAVSVHRHLQPSGRYIAQLLPHNEAAREILLMPTPGKHGWTVLQGRIGRPDNPFRVALEYISSGNRSLSAVDFFALKNCSEGTSPGSKMALQSSFTCWNGTVLQLGQACDFHQDCAQGEDESQMCRKLPVGFYCNFEDGFCGWTQGTLSPHTPQWQVRTLKDARFQDHQDHALLLSTTDVPASESATVTSATFPAPIKSSPCELRMSWLIRGVLRGNVSLVLVENKTGKEQGRMVWHVAAYEGLSLWQWMVLPLLDVSDRFWLQMVAWWGQGSRAIVAFDNISISLDCYLTISGEDKILQNTAPKSRNLFERNPNKELKPGENSPRQTPIFDPTVHWLFTTCGASGPHGPTQAQCNNAYQNSNLSVEVGSEGPLKGIQIWKVPATDTYSISGYGAAGGKGGKNTMMRSHGVSVLGIFNLEKDDMLYILVGQQGEDACPSTNQLIQKVCIGENNVIEEEIRVNRSVHEWAGGGGGGGGATYVFKMKDGVPVPLIIAAGGGGRAYGAKTDTFHPERLENNSSVLGLNGNSGAAGGGGGWNDNTSLLWAGKSLQEGATGGHSCPQAMKKWGWETRGGFGGGGGGCSSGGGGGGYIGGNAASNNDPEMDGEDGVSFISPLGILYTPALKVMEGHGEVNIKHYLNCSHCEVDECHMDPESHKVICFCDHGTVLAEDGVSCIVSPTPEPHLPLSLILSVVTSALVAALVLAFSGIMIVYRRKHQELQAMQMELQSPEYKLSKLRTSTIMTDYNPNYCFAGKTSSISDLKEVPRKNITLIRGLGHGAFGEVYEGQVSGMPNDPSPLQVAVKTLPEVCSEQDELDFLMEALIISKFNHQNIVRCIGVSLQSLPRFILLELMAGGDLKSFLRETRPRPSQPSSLAMLDLLHVARDIACGCQYLEENHFIHRDIAARNCLLTCPGPGRVAKIGDFGMARDIYRASYYRKGGCAMLPVKWMPPEAFMEGIFTSKTDTWSFGVLLWEIFSLGYMPYPSKSNQEVLEFVTSGGRMDPPKNCPGPVYRIMTQCWQHQPEDRPNFAIILERIEYCTQDPDVINTALPIEYGPLVEEEEKVPVRPKDPEGVPPLLVSQQAKREEERSPAAPPPLPTTSSGKAAKKPTAAEISVRVPRGPAVEGGHVNMAFSQSNPPSELHKVHGSRNKPTSLWNPTYGSWFTEKPTKKNNPIAKKEPHDRGNLGLEGSCTVPPNVATGRLPGASLLLEPSSLTANMKEVPLFRLRHFPCGNVNYGYQQQGLPLEAATAPGAGHYEDTILKSKNSMNQPGP

> <PDB ID(s) of Target Chain>
2XB7,2XBA,3AOX,5FTO,5FTQ,6E0R,6EBW,6EDL,6MX8

> <UniProt (SwissProt) Recommended Name of Target Chain>
ALK tyrosine kinase receptor

> <UniProt (SwissProt) Entry Name of Target Chain>
ALK_HUMAN

> <UniProt (SwissProt) Primary ID of Target Chain>
Q9UM73

> <UniProt (SwissProt) Secondary ID(s) of Target Chain>
Q4ZFX9,Q53QQ6,Q53RZ4,Q59FI3,Q9Y4K6

> <UniProt (SwissProt) Alternative ID(s) of Target Chain>


> <UniProt (TrEMBL) Submitted Name of Target Chain>


> <UniProt (TrEMBL) Entry Name of Target Chain>


> <UniProt (TrEMBL) Primary ID of Target Chain>


> <UniProt (TrEMBL) Secondary ID(s) of Target Chain>


> <UniProt (TrEMBL) Alternative ID(s) of Target Chain>


$$$$
BindingDB_50436852_mol_1

Vconf v2.0 Academic SN VC001-00000579
 80 83  0  0  0  0  0  0  0  0999 V2000
   15.1870  -24.5970   -3.5880 O   0  0  0  0  0  0  0  0  0  0  0
   13.9250  -24.4790   -2.6300 S   0  0  0  0  0  0  0  0  0  0  0
   13.7620  -23.1900   -1.7090 O   0  0  0  0  0  0  0  0  0  0  0
   13.7930  -25.9470   -1.6980 C   0  0  0  0  0  0  0  0  0  0  0
   14.5170  -27.0670   -2.1550 C   0  0  0  0  0  0  0  0  0  0  0
   14.4580  -28.2860   -1.4660 C   0  0  0  0  0  0  0  0  0  0  0
   13.6710  -28.3930   -0.3120 C   0  0  0  0  0  0  0  0  0  0  0
   12.9430  -27.2840    0.1440 C   0  0  0  0  0  0  0  0  0  0  0
   12.9790  -26.0430   -0.5410 C   0  0  0  0  0  0  0  0  0  0  0
   12.2800  -24.9210   -0.1720 N   0  0  0  0  0  0  0  0  0  0  0
   11.3790  -24.7200    0.8370 C   0  0  0  0  0  0  0  0  0  0  0
   10.9850  -25.7260    1.6530 N   0  0  0  0  0  0  0  0  0  0  0
   10.0940  -25.5840    2.6620 C   0  0  0  0  0  0  0  0  0  0  0
    9.5680  -24.3580    2.8800 N   0  0  0  0  0  0  0  0  0  0  0
    9.9020  -23.2980    2.1080 C   0  0  0  0  0  0  0  0  0  0  0
   10.8180  -23.4420    1.0510 C   0  0  0  0  0  0  0  0  0  0  0
   12.5560  -24.4550   -3.8120 C   0  0  0  0  0  0  0  0  0  0  0
   11.1860  -24.5110   -3.1190 C   0  0  0  0  0  0  0  0  0  0  0
   12.6540  -23.1830   -4.6640 C   0  0  0  0  0  0  0  0  0  0  0
   11.2010  -22.0880    0.1080 Cl  0  0  0  0  0  0  0  0  0  0  0
    9.7220  -26.6250    3.4460 N   0  0  0  0  0  0  0  0  0  0  0
   10.1630  -27.8980    3.2790 C   0  0  0  0  0  0  0  0  0  0  0
    9.9820  -28.5960    2.0670 C   0  0  0  0  0  0  0  0  0  0  0
   10.5150  -29.8910    1.9360 C   0  0  0  0  0  0  0  0  0  0  0
   11.1920  -30.5250    3.0000 C   0  0  0  0  0  0  0  0  0  0  0
   11.3270  -29.8340    4.2300 C   0  0  0  0  0  0  0  0  0  0  0
   10.8150  -28.5280    4.3560 C   0  0  0  0  0  0  0  0  0  0  0
    9.3170  -27.9570    1.0540 O   0  0  0  0  0  0  0  0  0  0  0
    9.0070  -28.5370   -0.2170 C   0  0  0  0  0  0  0  0  0  0  0
   11.7390  -31.8910    2.7880 C   0  0  0  0  0  0  0  0  0  0  0
   10.6280  -32.9040    2.4430 C   0  0  0  0  0  0  0  0  0  0  0
   11.2350  -34.2940    2.2040 C   0  0  0  0  0  0  0  0  0  0  0
   12.2150  -34.2380    1.0970 N   0  0  0  0  0  0  0  0  0  0  0
   13.3260  -33.3350    1.4630 C   0  0  0  0  0  0  0  0  0  0  0
   12.8080  -31.9060    1.6760 C   0  0  0  0  0  0  0  0  0  0  0
    7.8430  -29.5330   -0.0960 C   0  0  0  0  0  0  0  0  0  0  0
    8.6060  -27.3930   -1.1560 C   0  0  0  0  0  0  0  0  0  0  0
   12.0080  -30.4520    5.3840 C   0  0  0  0  0  0  0  0  0  0  0
   12.7580  -35.5770    0.7900 C   0  0  0  0  0  0  0  0  0  0  0
   11.7080  -36.4730    0.1210 C   0  0  0  0  0  0  0  0  0  0  0
   15.0910  -26.9960   -2.9950 H   0  0  0  0  0  0  0  0  0  0  0
   14.9860  -29.0920   -1.8030 H   0  0  0  0  0  0  0  0  0  0  0
   13.6280  -29.2770    0.1970 H   0  0  0  0  0  0  0  0  0  0  0
   12.3950  -27.4040    0.9900 H   0  0  0  0  0  0  0  0  0  0  0
   12.4430  -24.1380   -0.7160 H   0  0  0  0  0  0  0  0  0  0  0
    9.4790  -22.3900    2.3070 H   0  0  0  0  0  0  0  0  0  0  0
   12.6510  -25.3220   -4.4660 H   0  0  0  0  0  0  0  0  0  0  0
   10.3940  -24.4430   -3.8650 H   0  0  0  0  0  0  0  0  0  0  0
   11.0800  -25.4530   -2.5820 H   0  0  0  0  0  0  0  0  0  0  0
   11.0920  -23.6800   -2.4200 H   0  0  0  0  0  0  0  0  0  0  0
   11.8530  -23.1700   -5.4040 H   0  0  0  0  0  0  0  0  0  0  0
   12.5720  -22.3050   -4.0220 H   0  0  0  0  0  0  0  0  0  0  0
   13.6170  -23.1630   -5.1780 H   0  0  0  0  0  0  0  0  0  0  0
    9.1310  -26.4400    4.1900 H   0  0  0  0  0  0  0  0  0  0  0
   10.4140  -30.3850    1.0520 H   0  0  0  0  0  0  0  0  0  0  0
   10.9300  -28.0210    5.2350 H   0  0  0  0  0  0  0  0  0  0  0
    9.8810  -29.0330   -0.6420 H   0  0  0  0  0  0  0  0  0  0  0
   12.2230  -32.2520    3.6940 H   0  0  0  0  0  0  0  0  0  0  0
   10.1010  -32.6000    1.5380 H   0  0  0  0  0  0  0  0  0  0  0
    9.9160  -32.9630    3.2680 H   0  0  0  0  0  0  0  0  0  0  0
   11.7140  -34.6470    3.1190 H   0  0  0  0  0  0  0  0  0  0  0
   10.4200  -34.9700    1.9490 H   0  0  0  0  0  0  0  0  0  0  0
   13.8150  -33.6860    2.3740 H   0  0  0  0  0  0  0  0  0  0  0
   14.0600  -33.3120    0.6560 H   0  0  0  0  0  0  0  0  0  0  0
   12.3860  -31.5490    0.7350 H   0  0  0  0  0  0  0  0  0  0  0
   13.6420  -31.2640    1.9600 H   0  0  0  0  0  0  0  0  0  0  0
    7.5900  -29.9230   -1.0820 H   0  0  0  0  0  0  0  0  0  0  0
    8.1250  -30.3620    0.5530 H   0  0  0  0  0  0  0  0  0  0  0
    6.9730  -29.0290    0.3270 H   0  0  0  0  0  0  0  0  0  0  0
    8.3750  -27.7900   -2.1450 H   0  0  0  0  0  0  0  0  0  0  0
    7.7310  -26.8780   -0.7570 H   0  0  0  0  0  0  0  0  0  0  0
    9.4320  -26.6860   -1.2360 H   0  0  0  0  0  0  0  0  0  0  0
   12.0080  -29.7880    6.2510 H   0  0  0  0  0  0  0  0  0  0  0
   11.4940  -31.3750    5.6560 H   0  0  0  0  0  0  0  0  0  0  0
   13.0420  -30.6780    5.1200 H   0  0  0  0  0  0  0  0  0  0  0
   13.5900  -35.4740    0.0920 H   0  0  0  0  0  0  0  0  0  0  0
   13.1230  -36.0590    1.6990 H   0  0  0  0  0  0  0  0  0  0  0
   12.1890  -37.3810   -0.2430 H   0  0  0  0  0  0  0  0  0  0  0
   10.9340  -36.7480    0.8350 H   0  0  0  0  0  0  0  0  0  0  0
   11.2580  -35.9450   -0.7190 H   0  0  0  0  0  0  0  0  0  0  0
  1  2  2  0  0  0  0
  2  3  2  0  0  0  0
  2  4  1  0  0  0  0
  2 17  1  0  0  0  0
  4  5  2  0  0  0  0
  4  9  1  0  0  0  0
  5  6  1  0  0  0  0
  5 41  1  0  0  0  0
  6  7  2  0  0  0  0
  6 42  1  0  0  0  0
  7  8  1  0  0  0  0
  7 43  1  0  0  0  0
  8  9  2  0  0  0  0
  8 44  1  0  0  0  0
  9 10  1  0  0  0  0
 10 11  1  0  0  0  0
 10 45  1  0  0  0  0
 11 12  2  0  0  0  0
 11 16  1  0  0  0  0
 12 13  1  0  0  0  0
 13 14  2  0  0  0  0
 13 21  1  0  0  0  0
 14 15  1  0  0  0  0
 15 16  2  0  0  0  0
 15 46  1  0  0  0  0
 16 20  1  0  0  0  0
 17 18  1  0  0  0  0
 17 19  1  0  0  0  0
 17 47  1  0  0  0  0
 18 48  1  0  0  0  0
 18 49  1  0  0  0  0
 18 50  1  0  0  0  0
 19 51  1  0  0  0  0
 19 52  1  0  0  0  0
 19 53  1  0  0  0  0
 21 22  1  0  0  0  0
 21 54  1  0  0  0  0
 22 23  2  0  0  0  0
 22 27  1  0  0  0  0
 23 24  1  0  0  0  0
 23 28  1  0  0  0  0
 24 25  2  0  0  0  0
 24 55  1  0  0  0  0
 25 26  1  0  0  0  0
 25 30  1  0  0  0  0
 26 27  2  0  0  0  0
 26 38  1  0  0  0  0
 27 56  1  0  0  0  0
 28 29  1  0  0  0  0
 29 36  1  0  0  0  0
 29 37  1  0  0  0  0
 29 57  1  0  0  0  0
 30 31  1  0  0  0  0
 30 35  1  0  0  0  0
 30 58  1  0  0  0  0
 31 32  1  0  0  0  0
 31 59  1  0  0  0  0
 31 60  1  0  0  0  0
 32 33  1  0  0  0  0
 32 61  1  0  0  0  0
 32 62  1  0  0  0  0
 33 34  1  0  0  0  0
 33 39  1  0  0  0  0
 34 35  1  0  0  0  0
 34 63  1  0  0  0  0
 34 64  1  0  0  0  0
 35 65  1  0  0  0  0
 35 66  1  0  0  0  0
 36 67  1  0  0  0  0
 36 68  1  0  0  0  0
 36 69  1  0  0  0  0
 37 70  1  0  0  0  0
 37 71  1  0  0  0  0
 37 72  1  0  0  0  0
 38 73  1  0  0  0  0
 38 74  1  0  0  0  0
 38 75  1  0  0  0  0
 39 40  1  0  0  0  0
 39 76  1  0  0  0  0
 39 77  1  0  0  0  0
 40 78  1  0  0  0  0
 40 79  1  0  0  0  0
 40 80  1  0  0  0  0
M  END
> <From>
www.bindingDB.org

> <BindingDB Reactant_set_id>
51069465

> <Ligand InChI>
InChI=1S/C30H40ClN5O3S/c1-7-36-14-12-22(13-15-36)23-17-27(39-19(2)3)26(16-21(23)6)34-30-32-18-24(31)29(35-30)33-25-10-8-9-11-28(25)40(37,38)20(4)5/h8-11,16-20,22H,7,12-15H2,1-6H3,(H2,32,33,34,35)

> <Ligand InChI Key>
AZXPDNLEMGQMQS-UHFFFAOYSA-N

> <BindingDB MonomerID>
50436852

> <BindingDB Ligand Name>
CHEMBL2403834

> <Target Name Assigned by Curator or DataSource>
ALK tyrosine kinase receptor

> <Target Source Organism According to Curator or DataSource>
Homo sapiens

> <Ki (nM)>


> <IC50 (nM)>
 32

> <Kd (nM)>


> <EC50 (nM)>


> <kon (M-1-s-1)>


> <koff (s-1)>


> <pH>


> <Temp C>


> <Curation/DataSource>
ChEMBL

> <Article DOI>
10.1021/jm400402q

> <PMID>
23742252

> <PubChem AID>


> <Patent Number>


> <Authors>
Marsilje, TH; Pei, W; Chen, B; Lu, W; Uno, T; Jin, Y; Jiang, T; Kim, S; Li, N; Warmuth, M; Sarkisova, Y; Sun, F; Steffy, A; Pferdekamper, AC; Li, AG; Joseph, SB; Kim, Y; Liu, B; Tuntland, T; Cui, X; Gray, NS; Steensma, R; Wan, Y; Jiang, J; Chopiuk, G; Li, J; Gordon, WP; Richmond, W; Johnson, K; Chang, J; Groessl, T; He, YQ; Phimister, A; Aycinena, A; Lee, CC; Bursulaya, B; Karanewsky, DS; Seidel, HM; Harris, JL; Michellys, PY

> <Institution>
Genomics Institute of the Novartis Research Foundation 

> <Link to Ligand in BindingDB>
http://www.bindingdb.org/bind/chemsearch/marvin/MolStructure.jsp?monomerid=50436852

> <Link to Ligand-Target Pair in BindingDB>
http://www.bindingdb.org/jsp/dbsearch/PrimarySearch_ki.jsp?energyterm=kJ/mole&tag=pol&polymerid=5809&target=ALK+tyrosine+kinase+receptor&column=ki&startPg=0&Increment=50&submit=Search

> <Link to Ligand-Target Pair in BindingDB>
http://www.bindingdb.org/jsp/dbsearch/PrimarySearch_ki.jsp?energyterm=kJ/mole&tag=r21&monomerid=50436852&enzyme=ALK+tyrosine+kinase+receptor&column=ki&startPg=0&Increment=50&submit=Search

> <Ligand HET ID in PDB>


> <PDB ID(s) for Ligand-Target Complex>


> <PubChem CID>
71764056

> <PubChem SID>
175449169

> <ChEBI ID of Ligand>


> <ChEMBL ID of Ligand>
CHEMBL2403834

> <DrugBank ID of Ligand>


> <IUPHAR_GRAC ID of Ligand>


> <KEGG ID of Ligand>


> <ZINC ID of Ligand>
ZINC96272774

> <Number of Protein Chains in Target (>1 implies a multichain complex)>
1

> <BindingDB Target Chain Sequence>
MGAIGLLWLLPLLLSTAAVGSGMGTGQRAGSPAAGPPLQPREPLSYSRLQRKSLAVDFVVPSLFRVYARDLLLPPSSSELKAGRPEARGSLALDCAPLLRLLGPAPGVSWTAGSPAPAEARTLSRVLKGGSVRKLRRAKQLVLELGEEAILEGCVGPPGEAAVGLLQFNLSELFSWWIRQGEGRLRIRLMPEKKASEVGREGRLSAAIRASQPRLLFQIFGTGHSSLESPTNMPSPSPDYFTWNLTWIMKDSFPFLSHRSRYGLECSFDFPCELEYSPPLHDLRNQSWSWRRIPSEEASQMDLLDGPGAERSKEMPRGSFLLLNTSADSKHTILSPWMRSSSEHCTLAVSVHRHLQPSGRYIAQLLPHNEAAREILLMPTPGKHGWTVLQGRIGRPDNPFRVALEYISSGNRSLSAVDFFALKNCSEGTSPGSKMALQSSFTCWNGTVLQLGQACDFHQDCAQGEDESQMCRKLPVGFYCNFEDGFCGWTQGTLSPHTPQWQVRTLKDARFQDHQDHALLLSTTDVPASESATVTSATFPAPIKSSPCELRMSWLIRGVLRGNVSLVLVENKTGKEQGRMVWHVAAYEGLSLWQWMVLPLLDVSDRFWLQMVAWWGQGSRAIVAFDNISISLDCYLTISGEDKILQNTAPKSRNLFERNPNKELKPGENSPRQTPIFDPTVHWLFTTCGASGPHGPTQAQCNNAYQNSNLSVEVGSEGPLKGIQIWKVPATDTYSISGYGAAGGKGGKNTMMRSHGVSVLGIFNLEKDDMLYILVGQQGEDACPSTNQLIQKVCIGENNVIEEEIRVNRSVHEWAGGGGGGGGATYVFKMKDGVPVPLIIAAGGGGRAYGAKTDTFHPERLENNSSVLGLNGNSGAAGGGGGWNDNTSLLWAGKSLQEGATGGHSCPQAMKKWGWETRGGFGGGGGGCSSGGGGGGYIGGNAASNNDPEMDGEDGVSFISPLGILYTPALKVMEGHGEVNIKHYLNCSHCEVDECHMDPESHKVICFCDHGTVLAEDGVSCIVSPTPEPHLPLSLILSVVTSALVAALVLAFSGIMIVYRRKHQELQAMQMELQSPEYKLSKLRTSTIMTDYNPNYCFAGKTSSISDLKEVPRKNITLIRGLGHGAFGEVYEGQVSGMPNDPSPLQVAVKTLPEVCSEQDELDFLMEALIISKFNHQNIVRCIGVSLQSLPRFILLELMAGGDLKSFLRETRPRPSQPSSLAMLDLLHVARDIACGCQYLEENHFIHRDIAARNCLLTCPGPGRVAKIGDFGMARDIYRASYYRKGGCAMLPVKWMPPEAFMEGIFTSKTDTWSFGVLLWEIFSLGYMPYPSKSNQEVLEFVTSGGRMDPPKNCPGPVYRIMTQCWQHQPEDRPNFAIILERIEYCTQDPDVINTALPIEYGPLVEEEEKVPVRPKDPEGVPPLLVSQQAKREEERSPAAPPPLPTTSSGKAAKKPTAAEISVRVPRGPAVEGGHVNMAFSQSNPPSELHKVHGSRNKPTSLWNPTYGSWFTEKPTKKNNPIAKKEPHDRGNLGLEGSCTVPPNVATGRLPGASLLLEPSSLTANMKEVPLFRLRHFPCGNVNYGYQQQGLPLEAATAPGAGHYEDTILKSKNSMNQPGP

> <PDB ID(s) of Target Chain>
2XB7,2XBA,3AOX,5FTO,5FTQ,6E0R,6EBW,6EDL,6MX8

> <UniProt (SwissProt) Recommended Name of Target Chain>
ALK tyrosine kinase receptor

> <UniProt (SwissProt) Entry Name of Target Chain>
ALK_HUMAN

> <UniProt (SwissProt) Primary ID of Target Chain>
Q9UM73

> <UniProt (SwissProt) Secondary ID(s) of Target Chain>
Q4ZFX9,Q53QQ6,Q53RZ4,Q59FI3,Q9Y4K6

> <UniProt (SwissProt) Alternative ID(s) of Target Chain>


> <UniProt (TrEMBL) Submitted Name of Target Chain>


> <UniProt (TrEMBL) Entry Name of Target Chain>


> <UniProt (TrEMBL) Primary ID of Target Chain>


> <UniProt (TrEMBL) Secondary ID(s) of Target Chain>


> <UniProt (TrEMBL) Alternative ID(s) of Target Chain>


$$$$
BindingDB_50436853_mol_1

Vconf v2.0 Academic SN VC001-00000579
 83 86  0  0  0  0  0  0  0  0999 V2000
   30.3200  -24.0050   -0.6300 O   0  0  0  0  0  0  0  0  0  0  0
   28.8410  -24.0780   -0.0490 S   0  0  0  0  0  0  0  0  0  0  0
   28.5710  -24.1090    1.5190 O   0  0  0  0  0  0  0  0  0  0  0
   27.9680  -25.3980   -0.7750 C   0  0  0  0  0  0  0  0  0  0  0
   28.6170  -26.1640   -1.7630 C   0  0  0  0  0  0  0  0  0  0  0
   27.9400  -27.2050   -2.4160 C   0  0  0  0  0  0  0  0  0  0  0
   26.6080  -27.4840   -2.0800 C   0  0  0  0  0  0  0  0  0  0  0
   25.9570  -26.7220   -1.0980 C   0  0  0  0  0  0  0  0  0  0  0
   26.6210  -25.6640   -0.4310 C   0  0  0  0  0  0  0  0  0  0  0
   26.0680  -24.8840    0.5500 N   0  0  0  0  0  0  0  0  0  0  0
   24.7750  -24.7960    0.9730 C   0  0  0  0  0  0  0  0  0  0  0
   23.7740  -25.4100    0.3010 N   0  0  0  0  0  0  0  0  0  0  0
   22.4720  -25.3560    0.6650 C   0  0  0  0  0  0  0  0  0  0  0
   22.1470  -24.6530    1.7730 N   0  0  0  0  0  0  0  0  0  0  0
   23.0860  -23.9950    2.4930 C   0  0  0  0  0  0  0  0  0  0  0
   24.4380  -24.0310    2.1100 C   0  0  0  0  0  0  0  0  0  0  0
   28.0240  -22.5700   -0.6220 C   0  0  0  0  0  0  0  0  0  0  0
   28.6640  -21.3530    0.0580 C   0  0  0  0  0  0  0  0  0  0  0
   28.1330  -22.4360   -2.1490 C   0  0  0  0  0  0  0  0  0  0  0
   25.5900  -23.1860    3.0220 Cl  0  0  0  0  0  0  0  0  0  0  0
   21.5120  -25.9850   -0.0520 N   0  0  0  0  0  0  0  0  0  0  0
   21.7660  -26.6170   -1.2240 C   0  0  0  0  0  0  0  0  0  0  0
   21.7620  -28.0210   -1.3030 C   0  0  0  0  0  0  0  0  0  0  0
   22.0610  -28.6500   -2.5230 C   0  0  0  0  0  0  0  0  0  0  0
   22.3920  -27.9040   -3.6740 C   0  0  0  0  0  0  0  0  0  0  0
   22.3850  -26.4890   -3.5950 C   0  0  0  0  0  0  0  0  0  0  0
   22.0660  -25.8610   -2.3740 C   0  0  0  0  0  0  0  0  0  0  0
   21.4990  -28.7910   -0.2110 O   0  0  0  0  0  0  0  0  0  0  0
   22.5480  -29.0680    0.7250 C   0  0  0  0  0  0  0  0  0  0  0
   22.7840  -28.6260   -4.9140 C   0  0  0  0  0  0  0  0  0  0  0
   24.0870  -29.4190   -4.6950 C   0  0  0  0  0  0  0  0  0  0  0
   24.4830  -30.1420   -5.9870 C   0  0  0  0  0  0  0  0  0  0  0
   23.4010  -31.0640   -6.3920 N   0  0  0  0  0  0  0  0  0  0  0
   22.1630  -30.3120   -6.6850 C   0  0  0  0  0  0  0  0  0  0  0
   21.6800  -29.5730   -5.4270 C   0  0  0  0  0  0  0  0  0  0  0
   21.9310  -29.7930    1.9290 C   0  0  0  0  0  0  0  0  0  0  0
   23.6430  -29.9530    0.1080 C   0  0  0  0  0  0  0  0  0  0  0
   22.7250  -25.6500   -4.7590 C   0  0  0  0  0  0  0  0  0  0  0
   23.7750  -31.9680   -7.5050 C   0  0  0  0  0  0  0  0  0  0  0
   24.3950  -31.2450   -8.7140 C   0  0  0  0  0  0  0  0  0  0  0
   24.7320  -33.0580   -6.9970 C   0  0  0  0  0  0  0  0  0  0  0
   29.5850  -25.9590   -2.0130 H   0  0  0  0  0  0  0  0  0  0  0
   28.4150  -27.7580   -3.1310 H   0  0  0  0  0  0  0  0  0  0  0
   26.1130  -28.2470   -2.5420 H   0  0  0  0  0  0  0  0  0  0  0
   24.9990  -26.9760   -0.8670 H   0  0  0  0  0  0  0  0  0  0  0
   26.6860  -24.3020    1.0180 H   0  0  0  0  0  0  0  0  0  0  0
   22.7970  -23.4670    3.3170 H   0  0  0  0  0  0  0  0  0  0  0
   26.9710  -22.6050   -0.3460 H   0  0  0  0  0  0  0  0  0  0  0
   28.1620  -20.4410   -0.2670 H   0  0  0  0  0  0  0  0  0  0  0
   28.5640  -21.4490    1.1390 H   0  0  0  0  0  0  0  0  0  0  0
   29.7210  -21.2990   -0.2020 H   0  0  0  0  0  0  0  0  0  0  0
   27.6680  -21.5040   -2.4710 H   0  0  0  0  0  0  0  0  0  0  0
   29.1830  -22.4360   -2.4440 H   0  0  0  0  0  0  0  0  0  0  0
   27.6250  -23.2720   -2.6290 H   0  0  0  0  0  0  0  0  0  0  0
   20.6020  -25.9700    0.2810 H   0  0  0  0  0  0  0  0  0  0  0
   22.0640  -29.6690   -2.5630 H   0  0  0  0  0  0  0  0  0  0  0
   22.0730  -24.8420   -2.3130 H   0  0  0  0  0  0  0  0  0  0  0
   22.9970  -28.1390    1.0780 H   0  0  0  0  0  0  0  0  0  0  0
   22.9810  -27.9180   -5.7180 H   0  0  0  0  0  0  0  0  0  0  0
   23.9590  -30.1600   -3.9040 H   0  0  0  0  0  0  0  0  0  0  0
   24.8900  -28.7340   -4.4180 H   0  0  0  0  0  0  0  0  0  0  0
   24.6660  -29.4030   -6.7680 H   0  0  0  0  0  0  0  0  0  0  0
   25.4020  -30.6940   -5.8000 H   0  0  0  0  0  0  0  0  0  0  0
   21.3780  -31.0020   -6.9970 H   0  0  0  0  0  0  0  0  0  0  0
   22.3360  -29.5900   -7.4830 H   0  0  0  0  0  0  0  0  0  0  0
   21.4250  -30.3120   -4.6670 H   0  0  0  0  0  0  0  0  0  0  0
   20.7880  -28.9950   -5.6750 H   0  0  0  0  0  0  0  0  0  0  0
   22.7010  -29.9890    2.6750 H   0  0  0  0  0  0  0  0  0  0  0
   21.1540  -29.1690    2.3710 H   0  0  0  0  0  0  0  0  0  0  0
   21.4930  -30.7370    1.6050 H   0  0  0  0  0  0  0  0  0  0  0
   24.3860  -30.1990    0.8660 H   0  0  0  0  0  0  0  0  0  0  0
   23.2000  -30.8710   -0.2770 H   0  0  0  0  0  0  0  0  0  0  0
   24.1360  -29.4220   -0.7060 H   0  0  0  0  0  0  0  0  0  0  0
   22.6680  -24.5870   -4.5180 H   0  0  0  0  0  0  0  0  0  0  0
   23.7410  -25.8730   -5.0890 H   0  0  0  0  0  0  0  0  0  0  0
   22.0280  -25.8580   -5.5710 H   0  0  0  0  0  0  0  0  0  0  0
   22.8750  -32.4790   -7.8500 H   0  0  0  0  0  0  0  0  0  0  0
   24.5450  -31.9580   -9.5240 H   0  0  0  0  0  0  0  0  0  0  0
   23.7280  -30.4560   -9.0590 H   0  0  0  0  0  0  0  0  0  0  0
   25.3580  -30.8120   -8.4440 H   0  0  0  0  0  0  0  0  0  0  0
   24.8680  -33.8140   -7.7710 H   0  0  0  0  0  0  0  0  0  0  0
   25.7010  -32.6310   -6.7450 H   0  0  0  0  0  0  0  0  0  0  0
   24.3060  -33.5310   -6.1120 H   0  0  0  0  0  0  0  0  0  0  0
  1  2  2  0  0  0  0
  2  3  2  0  0  0  0
  2  4  1  0  0  0  0
  2 17  1  0  0  0  0
  4  5  2  0  0  0  0
  4  9  1  0  0  0  0
  5  6  1  0  0  0  0
  5 42  1  0  0  0  0
  6  7  2  0  0  0  0
  6 43  1  0  0  0  0
  7  8  1  0  0  0  0
  7 44  1  0  0  0  0
  8  9  2  0  0  0  0
  8 45  1  0  0  0  0
  9 10  1  0  0  0  0
 10 11  1  0  0  0  0
 10 46  1  0  0  0  0
 11 12  2  0  0  0  0
 11 16  1  0  0  0  0
 12 13  1  0  0  0  0
 13 14  2  0  0  0  0
 13 21  1  0  0  0  0
 14 15  1  0  0  0  0
 15 16  2  0  0  0  0
 15 47  1  0  0  0  0
 16 20  1  0  0  0  0
 17 18  1  0  0  0  0
 17 19  1  0  0  0  0
 17 48  1  0  0  0  0
 18 49  1  0  0  0  0
 18 50  1  0  0  0  0
 18 51  1  0  0  0  0
 19 52  1  0  0  0  0
 19 53  1  0  0  0  0
 19 54  1  0  0  0  0
 21 22  1  0  0  0  0
 21 55  1  0  0  0  0
 22 23  2  0  0  0  0
 22 27  1  0  0  0  0
 23 24  1  0  0  0  0
 23 28  1  0  0  0  0
 24 25  2  0  0  0  0
 24 56  1  0  0  0  0
 25 26  1  0  0  0  0
 25 30  1  0  0  0  0
 26 27  2  0  0  0  0
 26 38  1  0  0  0  0
 27 57  1  0  0  0  0
 28 29  1  0  0  0  0
 29 36  1  0  0  0  0
 29 37  1  0  0  0  0
 29 58  1  0  0  0  0
 30 31  1  0  0  0  0
 30 35  1  0  0  0  0
 30 59  1  0  0  0  0
 31 32  1  0  0  0  0
 31 60  1  0  0  0  0
 31 61  1  0  0  0  0
 32 33  1  0  0  0  0
 32 62  1  0  0  0  0
 32 63  1  0  0  0  0
 33 34  1  0  0  0  0
 33 39  1  0  0  0  0
 34 35  1  0  0  0  0
 34 64  1  0  0  0  0
 34 65  1  0  0  0  0
 35 66  1  0  0  0  0
 35 67  1  0  0  0  0
 36 68  1  0  0  0  0
 36 69  1  0  0  0  0
 36 70  1  0  0  0  0
 37 71  1  0  0  0  0
 37 72  1  0  0  0  0
 37 73  1  0  0  0  0
 38 74  1  0  0  0  0
 38 75  1  0  0  0  0
 38 76  1  0  0  0  0
 39 40  1  0  0  0  0
 39 41  1  0  0  0  0
 39 77  1  0  0  0  0
 40 78  1  0  0  0  0
 40 79  1  0  0  0  0
 40 80  1  0  0  0  0
 41 81  1  0  0  0  0
 41 82  1  0  0  0  0
 41 83  1  0  0  0  0
M  END
> <From>
www.bindingDB.org

> <BindingDB Reactant_set_id>
51069466

> <Ligand InChI>
InChI=1S/C31H42ClN5O3S/c1-19(2)37-14-12-23(13-15-37)24-17-28(40-20(3)4)27(16-22(24)7)35-31-33-18-25(32)30(36-31)34-26-10-8-9-11-29(26)41(38,39)21(5)6/h8-11,16-21,23H,12-15H2,1-7H3,(H2,33,34,35,36)

> <Ligand InChI Key>
XFABGERDXKXSEQ-UHFFFAOYSA-N

> <BindingDB MonomerID>
50436853

> <BindingDB Ligand Name>
CHEMBL2403835

> <Target Name Assigned by Curator or DataSource>
ALK tyrosine kinase receptor

> <Target Source Organism According to Curator or DataSource>
Homo sapiens

> <Ki (nM)>


> <IC50 (nM)>
 30

> <Kd (nM)>


> <EC50 (nM)>


> <kon (M-1-s-1)>


> <koff (s-1)>


> <pH>


> <Temp C>


> <Curation/DataSource>
ChEMBL

> <Article DOI>
10.1021/jm400402q

> <PMID>
23742252

> <PubChem AID>


> <Patent Number>


> <Authors>
Marsilje, TH; Pei, W; Chen, B; Lu, W; Uno, T; Jin, Y; Jiang, T; Kim, S; Li, N; Warmuth, M; Sarkisova, Y; Sun, F; Steffy, A; Pferdekamper, AC; Li, AG; Joseph, SB; Kim, Y; Liu, B; Tuntland, T; Cui, X; Gray, NS; Steensma, R; Wan, Y; Jiang, J; Chopiuk, G; Li, J; Gordon, WP; Richmond, W; Johnson, K; Chang, J; Groessl, T; He, YQ; Phimister, A; Aycinena, A; Lee, CC; Bursulaya, B; Karanewsky, DS; Seidel, HM; Harris, JL; Michellys, PY

> <Institution>
Genomics Institute of the Novartis Research Foundation 

> <Link to Ligand in BindingDB>
http://www.bindingdb.org/bind/chemsearch/marvin/MolStructure.jsp?monomerid=50436853

> <Link to Ligand-Target Pair in BindingDB>
http://www.bindingdb.org/jsp/dbsearch/PrimarySearch_ki.jsp?energyterm=kJ/mole&tag=pol&polymerid=5809&target=ALK+tyrosine+kinase+receptor&column=ki&startPg=0&Increment=50&submit=Search

> <Link to Ligand-Target Pair in BindingDB>
http://www.bindingdb.org/jsp/dbsearch/PrimarySearch_ki.jsp?energyterm=kJ/mole&tag=r21&monomerid=50436853&enzyme=ALK+tyrosine+kinase+receptor&column=ki&startPg=0&Increment=50&submit=Search

> <Ligand HET ID in PDB>


> <PDB ID(s) for Ligand-Target Complex>


> <PubChem CID>
71764218

> <PubChem SID>
175449170

> <ChEBI ID of Ligand>


> <ChEMBL ID of Ligand>
CHEMBL2403835

> <DrugBank ID of Ligand>


> <IUPHAR_GRAC ID of Ligand>


> <KEGG ID of Ligand>


> <ZINC ID of Ligand>
ZINC96272775

> <Number of Protein Chains in Target (>1 implies a multichain complex)>
1

> <BindingDB Target Chain Sequence>
MGAIGLLWLLPLLLSTAAVGSGMGTGQRAGSPAAGPPLQPREPLSYSRLQRKSLAVDFVVPSLFRVYARDLLLPPSSSELKAGRPEARGSLALDCAPLLRLLGPAPGVSWTAGSPAPAEARTLSRVLKGGSVRKLRRAKQLVLELGEEAILEGCVGPPGEAAVGLLQFNLSELFSWWIRQGEGRLRIRLMPEKKASEVGREGRLSAAIRASQPRLLFQIFGTGHSSLESPTNMPSPSPDYFTWNLTWIMKDSFPFLSHRSRYGLECSFDFPCELEYSPPLHDLRNQSWSWRRIPSEEASQMDLLDGPGAERSKEMPRGSFLLLNTSADSKHTILSPWMRSSSEHCTLAVSVHRHLQPSGRYIAQLLPHNEAAREILLMPTPGKHGWTVLQGRIGRPDNPFRVALEYISSGNRSLSAVDFFALKNCSEGTSPGSKMALQSSFTCWNGTVLQLGQACDFHQDCAQGEDESQMCRKLPVGFYCNFEDGFCGWTQGTLSPHTPQWQVRTLKDARFQDHQDHALLLSTTDVPASESATVTSATFPAPIKSSPCELRMSWLIRGVLRGNVSLVLVENKTGKEQGRMVWHVAAYEGLSLWQWMVLPLLDVSDRFWLQMVAWWGQGSRAIVAFDNISISLDCYLTISGEDKILQNTAPKSRNLFERNPNKELKPGENSPRQTPIFDPTVHWLFTTCGASGPHGPTQAQCNNAYQNSNLSVEVGSEGPLKGIQIWKVPATDTYSISGYGAAGGKGGKNTMMRSHGVSVLGIFNLEKDDMLYILVGQQGEDACPSTNQLIQKVCIGENNVIEEEIRVNRSVHEWAGGGGGGGGATYVFKMKDGVPVPLIIAAGGGGRAYGAKTDTFHPERLENNSSVLGLNGNSGAAGGGGGWNDNTSLLWAGKSLQEGATGGHSCPQAMKKWGWETRGGFGGGGGGCSSGGGGGGYIGGNAASNNDPEMDGEDGVSFISPLGILYTPALKVMEGHGEVNIKHYLNCSHCEVDECHMDPESHKVICFCDHGTVLAEDGVSCIVSPTPEPHLPLSLILSVVTSALVAALVLAFSGIMIVYRRKHQELQAMQMELQSPEYKLSKLRTSTIMTDYNPNYCFAGKTSSISDLKEVPRKNITLIRGLGHGAFGEVYEGQVSGMPNDPSPLQVAVKTLPEVCSEQDELDFLMEALIISKFNHQNIVRCIGVSLQSLPRFILLELMAGGDLKSFLRETRPRPSQPSSLAMLDLLHVARDIACGCQYLEENHFIHRDIAARNCLLTCPGPGRVAKIGDFGMARDIYRASYYRKGGCAMLPVKWMPPEAFMEGIFTSKTDTWSFGVLLWEIFSLGYMPYPSKSNQEVLEFVTSGGRMDPPKNCPGPVYRIMTQCWQHQPEDRPNFAIILERIEYCTQDPDVINTALPIEYGPLVEEEEKVPVRPKDPEGVPPLLVSQQAKREEERSPAAPPPLPTTSSGKAAKKPTAAEISVRVPRGPAVEGGHVNMAFSQSNPPSELHKVHGSRNKPTSLWNPTYGSWFTEKPTKKNNPIAKKEPHDRGNLGLEGSCTVPPNVATGRLPGASLLLEPSSLTANMKEVPLFRLRHFPCGNVNYGYQQQGLPLEAATAPGAGHYEDTILKSKNSMNQPGP

> <PDB ID(s) of Target Chain>
2XB7,2XBA,3AOX,5FTO,5FTQ,6E0R,6EBW,6EDL,6MX8

> <UniProt (SwissProt) Recommended Name of Target Chain>
ALK tyrosine kinase receptor

> <UniProt (SwissProt) Entry Name of Target Chain>
ALK_HUMAN

> <UniProt (SwissProt) Primary ID of Target Chain>
Q9UM73

> <UniProt (SwissProt) Secondary ID(s) of Target Chain>
Q4ZFX9,Q53QQ6,Q53RZ4,Q59FI3,Q9Y4K6

> <UniProt (SwissProt) Alternative ID(s) of Target Chain>


> <UniProt (TrEMBL) Submitted Name of Target Chain>


> <UniProt (TrEMBL) Entry Name of Target Chain>


> <UniProt (TrEMBL) Primary ID of Target Chain>


> <UniProt (TrEMBL) Secondary ID(s) of Target Chain>


> <UniProt (TrEMBL) Alternative ID(s) of Target Chain>


$$$$
BindingDB_50436854_mol_1

Vconf v2.0 Academic SN VC001-00000579
 83 86  0  0  0  0  0  0  0  0999 V2000
   25.0740  -10.5670    4.2270 O   0  0  0  0  0  0  0  0  0  0  0
   25.5020   -9.5280    3.1010 S   0  0  0  0  0  0  0  0  0  0  0
   24.3740   -8.9220    2.1580 O   0  0  0  0  0  0  0  0  0  0  0
   26.8200  -10.2170    2.1860 C   0  0  0  0  0  0  0  0  0  0  0
   27.5490  -11.2580    2.7950 C   0  0  0  0  0  0  0  0  0  0  0
   28.6380  -11.8500    2.1390 C   0  0  0  0  0  0  0  0  0  0  0
   29.0070  -11.4010    0.8650 C   0  0  0  0  0  0  0  0  0  0  0
   28.2890  -10.3610    0.2550 C   0  0  0  0  0  0  0  0  0  0  0
   27.1880   -9.7460    0.9000 C   0  0  0  0  0  0  0  0  0  0  0
   26.4410   -8.7350    0.3570 N   0  0  0  0  0  0  0  0  0  0  0
   26.6330   -8.0000   -0.7750 C   0  0  0  0  0  0  0  0  0  0  0
   27.7550   -8.0960   -1.5300 N   0  0  0  0  0  0  0  0  0  0  0
   27.9750   -7.3510   -2.6400 C   0  0  0  0  0  0  0  0  0  0  0
   27.0290   -6.4630   -3.0160 N   0  0  0  0  0  0  0  0  0  0  0
   25.8800   -6.3120   -2.3170 C   0  0  0  0  0  0  0  0  0  0  0
   25.6380   -7.0790   -1.1640 C   0  0  0  0  0  0  0  0  0  0  0
   26.1120   -8.1120    4.0500 C   0  0  0  0  0  0  0  0  0  0  0
   27.1850   -8.5460    5.0610 C   0  0  0  0  0  0  0  0  0  0  0
   26.6770   -7.0200    3.1290 C   0  0  0  0  0  0  0  0  0  0  0
   29.0990   -7.4680   -3.3850 N   0  0  0  0  0  0  0  0  0  0  0
   30.1010   -8.3420   -3.1200 C   0  0  0  0  0  0  0  0  0  0  0
   29.9090   -9.7410   -3.1270 C   0  0  0  0  0  0  0  0  0  0  0
   30.9680  -10.5880   -2.7680 C   0  0  0  0  0  0  0  0  0  0  0
   32.2380  -10.0770   -2.4260 C   0  0  0  0  0  0  0  0  0  0  0
   32.4410   -8.6740   -2.4660 C   0  0  0  0  0  0  0  0  0  0  0
   31.3710   -7.8240   -2.8140 C   0  0  0  0  0  0  0  0  0  0  0
   28.7190  -10.3360   -3.4230 O   0  0  0  0  0  0  0  0  0  0  0
   28.0520  -10.1140   -4.6710 C   0  0  0  0  0  0  0  0  0  0  0
   33.3100  -11.0290   -2.0260 C   0  0  0  0  0  0  0  0  0  0  0
   32.9220  -11.8340   -0.7690 C   0  0  0  0  0  0  0  0  0  0  0
   34.0590  -12.7930   -0.3870 C   0  0  0  0  0  0  0  0  0  0  0
   34.3450  -13.7270   -1.4980 N   0  0  0  0  0  0  0  0  0  0  0
   34.7710  -12.9720   -2.6950 C   0  0  0  0  0  0  0  0  0  0  0
   33.6630  -12.0140   -3.1580 C   0  0  0  0  0  0  0  0  0  0  0
   28.9100  -10.5840   -5.8570 C   0  0  0  0  0  0  0  0  0  0  0
   26.7380  -10.9030   -4.6360 C   0  0  0  0  0  0  0  0  0  0  0
   33.7470   -8.0730   -2.1400 C   0  0  0  0  0  0  0  0  0  0  0
   35.4040  -14.6910   -1.1280 C   0  0  0  0  0  0  0  0  0  0  0
   24.3810   -6.9270   -0.4110 C   0  0  0  0  0  0  0  0  0  0  0
   34.9000  -15.7310   -0.1190 C   0  0  0  0  0  0  0  0  0  0  0
   27.2870  -11.5860    3.7240 H   0  0  0  0  0  0  0  0  0  0  0
   29.1580  -12.6060    2.5870 H   0  0  0  0  0  0  0  0  0  0  0
   29.7940  -11.8310    0.3780 H   0  0  0  0  0  0  0  0  0  0  0
   28.5730  -10.0810   -0.6780 H   0  0  0  0  0  0  0  0  0  0  0
   25.6510   -8.4890    0.8560 H   0  0  0  0  0  0  0  0  0  0  0
   25.1870   -5.6350   -2.6360 H   0  0  0  0  0  0  0  0  0  0  0
   25.2700   -7.6940    4.6020 H   0  0  0  0  0  0  0  0  0  0  0
   27.4730   -7.6960    5.6790 H   0  0  0  0  0  0  0  0  0  0  0
   26.7840   -9.3330    5.7010 H   0  0  0  0  0  0  0  0  0  0  0
   28.0620   -8.9220    4.5350 H   0  0  0  0  0  0  0  0  0  0  0
   26.9680   -6.1520    3.7220 H   0  0  0  0  0  0  0  0  0  0  0
   27.5500   -7.3950    2.5950 H   0  0  0  0  0  0  0  0  0  0  0
   25.9140   -6.7210    2.4120 H   0  0  0  0  0  0  0  0  0  0  0
   29.2070   -6.8650   -4.1360 H   0  0  0  0  0  0  0  0  0  0  0
   30.8080  -11.5950   -2.7540 H   0  0  0  0  0  0  0  0  0  0  0
   31.5120   -6.8130   -2.8250 H   0  0  0  0  0  0  0  0  0  0  0
   27.8090   -9.0610   -4.8060 H   0  0  0  0  0  0  0  0  0  0  0
   34.2240  -10.4870   -1.7830 H   0  0  0  0  0  0  0  0  0  0  0
   32.0220  -12.4230   -0.9540 H   0  0  0  0  0  0  0  0  0  0  0
   32.7360  -11.1530    0.0630 H   0  0  0  0  0  0  0  0  0  0  0
   34.9520  -12.2160   -0.1390 H   0  0  0  0  0  0  0  0  0  0  0
   33.7440  -13.3480    0.4950 H   0  0  0  0  0  0  0  0  0  0  0
   35.6770  -12.4020   -2.4780 H   0  0  0  0  0  0  0  0  0  0  0
   34.9790  -13.6680   -3.5090 H   0  0  0  0  0  0  0  0  0  0  0
   32.7890  -12.6040   -3.4370 H   0  0  0  0  0  0  0  0  0  0  0
   34.0140  -11.4610   -4.0310 H   0  0  0  0  0  0  0  0  0  0  0
   28.3470  -10.4740   -6.7840 H   0  0  0  0  0  0  0  0  0  0  0
   29.8150   -9.9790   -5.9180 H   0  0  0  0  0  0  0  0  0  0  0
   29.1850  -11.6300   -5.7210 H   0  0  0  0  0  0  0  0  0  0  0
   26.1810  -10.7350   -5.5580 H   0  0  0  0  0  0  0  0  0  0  0
   26.9480  -11.9680   -4.5280 H   0  0  0  0  0  0  0  0  0  0  0
   26.1390  -10.5690   -3.7890 H   0  0  0  0  0  0  0  0  0  0  0
   33.7210   -6.9850   -2.2270 H   0  0  0  0  0  0  0  0  0  0  0
   34.0240   -8.3300   -1.1170 H   0  0  0  0  0  0  0  0  0  0  0
   34.5050   -8.4550   -2.8260 H   0  0  0  0  0  0  0  0  0  0  0
   35.7240  -15.2330   -2.0200 H   0  0  0  0  0  0  0  0  0  0  0
   36.2670  -14.1680   -0.7130 H   0  0  0  0  0  0  0  0  0  0  0
   23.7240   -6.1950   -0.8830 H   0  0  0  0  0  0  0  0  0  0  0
   23.8610   -7.8850   -0.3710 H   0  0  0  0  0  0  0  0  0  0  0
   24.5970   -6.5960    0.6040 H   0  0  0  0  0  0  0  0  0  0  0
   35.6620  -16.4990    0.0170 H   0  0  0  0  0  0  0  0  0  0  0
   34.6980  -15.2610    0.8430 H   0  0  0  0  0  0  0  0  0  0  0
   33.9870  -16.1940   -0.4970 H   0  0  0  0  0  0  0  0  0  0  0
  1  2  2  0  0  0  0
  2  3  2  0  0  0  0
  2  4  1  0  0  0  0
  2 17  1  0  0  0  0
  4  5  2  0  0  0  0
  4  9  1  0  0  0  0
  5  6  1  0  0  0  0
  5 41  1  0  0  0  0
  6  7  2  0  0  0  0
  6 42  1  0  0  0  0
  7  8  1  0  0  0  0
  7 43  1  0  0  0  0
  8  9  2  0  0  0  0
  8 44  1  0  0  0  0
  9 10  1  0  0  0  0
 10 11  1  0  0  0  0
 10 45  1  0  0  0  0
 11 12  2  0  0  0  0
 11 16  1  0  0  0  0
 12 13  1  0  0  0  0
 13 14  2  0  0  0  0
 13 20  1  0  0  0  0
 14 15  1  0  0  0  0
 15 16  2  0  0  0  0
 15 46  1  0  0  0  0
 16 39  1  0  0  0  0
 17 18  1  0  0  0  0
 17 19  1  0  0  0  0
 17 47  1  0  0  0  0
 18 48  1  0  0  0  0
 18 49  1  0  0  0  0
 18 50  1  0  0  0  0
 19 51  1  0  0  0  0
 19 52  1  0  0  0  0
 19 53  1  0  0  0  0
 20 21  1  0  0  0  0
 20 54  1  0  0  0  0
 21 22  2  0  0  0  0
 21 26  1  0  0  0  0
 22 23  1  0  0  0  0
 22 27  1  0  0  0  0
 23 24  2  0  0  0  0
 23 55  1  0  0  0  0
 24 25  1  0  0  0  0
 24 29  1  0  0  0  0
 25 26  2  0  0  0  0
 25 37  1  0  0  0  0
 26 56  1  0  0  0  0
 27 28  1  0  0  0  0
 28 35  1  0  0  0  0
 28 36  1  0  0  0  0
 28 57  1  0  0  0  0
 29 30  1  0  0  0  0
 29 34  1  0  0  0  0
 29 58  1  0  0  0  0
 30 31  1  0  0  0  0
 30 59  1  0  0  0  0
 30 60  1  0  0  0  0
 31 32  1  0  0  0  0
 31 61  1  0  0  0  0
 31 62  1  0  0  0  0
 32 33  1  0  0  0  0
 32 38  1  0  0  0  0
 33 34  1  0  0  0  0
 33 63  1  0  0  0  0
 33 64  1  0  0  0  0
 34 65  1  0  0  0  0
 34 66  1  0  0  0  0
 35 67  1  0  0  0  0
 35 68  1  0  0  0  0
 35 69  1  0  0  0  0
 36 70  1  0  0  0  0
 36 71  1  0  0  0  0
 36 72  1  0  0  0  0
 37 73  1  0  0  0  0
 37 74  1  0  0  0  0
 37 75  1  0  0  0  0
 38 40  1  0  0  0  0
 38 76  1  0  0  0  0
 38 77  1  0  0  0  0
 39 78  1  0  0  0  0
 39 79  1  0  0  0  0
 39 80  1  0  0  0  0
 40 81  1  0  0  0  0
 40 82  1  0  0  0  0
 40 83  1  0  0  0  0
M  END
> <From>
www.bindingDB.org

> <BindingDB Reactant_set_id>
51069467

> <Ligand InChI>
InChI=1S/C31H43N5O3S/c1-8-36-15-13-24(14-16-36)25-18-28(39-20(2)3)27(17-22(25)6)34-31-32-19-23(7)30(35-31)33-26-11-9-10-12-29(26)40(37,38)21(4)5/h9-12,17-21,24H,8,13-16H2,1-7H3,(H2,32,33,34,35)

> <Ligand InChI Key>
XQCYJMDRMXBJIP-UHFFFAOYSA-N

> <BindingDB MonomerID>
50436854

> <BindingDB Ligand Name>
CHEMBL2403827

> <Target Name Assigned by Curator or DataSource>
ALK tyrosine kinase receptor

> <Target Source Organism According to Curator or DataSource>
Homo sapiens

> <Ki (nM)>


> <IC50 (nM)>
 29

> <Kd (nM)>


> <EC50 (nM)>


> <kon (M-1-s-1)>


> <koff (s-1)>


> <pH>


> <Temp C>


> <Curation/DataSource>
ChEMBL

> <Article DOI>
10.1021/jm400402q

> <PMID>
23742252

> <PubChem AID>


> <Patent Number>


> <Authors>
Marsilje, TH; Pei, W; Chen, B; Lu, W; Uno, T; Jin, Y; Jiang, T; Kim, S; Li, N; Warmuth, M; Sarkisova, Y; Sun, F; Steffy, A; Pferdekamper, AC; Li, AG; Joseph, SB; Kim, Y; Liu, B; Tuntland, T; Cui, X; Gray, NS; Steensma, R; Wan, Y; Jiang, J; Chopiuk, G; Li, J; Gordon, WP; Richmond, W; Johnson, K; Chang, J; Groessl, T; He, YQ; Phimister, A; Aycinena, A; Lee, CC; Bursulaya, B; Karanewsky, DS; Seidel, HM; Harris, JL; Michellys, PY

> <Institution>
Genomics Institute of the Novartis Research Foundation 

> <Link to Ligand in BindingDB>
http://www.bindingdb.org/bind/chemsearch/marvin/MolStructure.jsp?monomerid=50436854

> <Link to Ligand-Target Pair in BindingDB>
http://www.bindingdb.org/jsp/dbsearch/PrimarySearch_ki.jsp?energyterm=kJ/mole&tag=pol&polymerid=5809&target=ALK+tyrosine+kinase+receptor&column=ki&startPg=0&Increment=50&submit=Search

> <Link to Ligand-Target Pair in BindingDB>
http://www.bindingdb.org/jsp/dbsearch/PrimarySearch_ki.jsp?energyterm=kJ/mole&tag=r21&monomerid=50436854&enzyme=ALK+tyrosine+kinase+receptor&column=ki&startPg=0&Increment=50&submit=Search

> <Ligand HET ID in PDB>


> <PDB ID(s) for Ligand-Target Complex>


> <PubChem CID>
71764396

> <PubChem SID>
175449171

> <ChEBI ID of Ligand>


> <ChEMBL ID of Ligand>
CHEMBL2403827

> <DrugBank ID of Ligand>


> <IUPHAR_GRAC ID of Ligand>


> <KEGG ID of Ligand>


> <ZINC ID of Ligand>
ZINC96272776

> <Number of Protein Chains in Target (>1 implies a multichain complex)>
1

> <BindingDB Target Chain Sequence>
MGAIGLLWLLPLLLSTAAVGSGMGTGQRAGSPAAGPPLQPREPLSYSRLQRKSLAVDFVVPSLFRVYARDLLLPPSSSELKAGRPEARGSLALDCAPLLRLLGPAPGVSWTAGSPAPAEARTLSRVLKGGSVRKLRRAKQLVLELGEEAILEGCVGPPGEAAVGLLQFNLSELFSWWIRQGEGRLRIRLMPEKKASEVGREGRLSAAIRASQPRLLFQIFGTGHSSLESPTNMPSPSPDYFTWNLTWIMKDSFPFLSHRSRYGLECSFDFPCELEYSPPLHDLRNQSWSWRRIPSEEASQMDLLDGPGAERSKEMPRGSFLLLNTSADSKHTILSPWMRSSSEHCTLAVSVHRHLQPSGRYIAQLLPHNEAAREILLMPTPGKHGWTVLQGRIGRPDNPFRVALEYISSGNRSLSAVDFFALKNCSEGTSPGSKMALQSSFTCWNGTVLQLGQACDFHQDCAQGEDESQMCRKLPVGFYCNFEDGFCGWTQGTLSPHTPQWQVRTLKDARFQDHQDHALLLSTTDVPASESATVTSATFPAPIKSSPCELRMSWLIRGVLRGNVSLVLVENKTGKEQGRMVWHVAAYEGLSLWQWMVLPLLDVSDRFWLQMVAWWGQGSRAIVAFDNISISLDCYLTISGEDKILQNTAPKSRNLFERNPNKELKPGENSPRQTPIFDPTVHWLFTTCGASGPHGPTQAQCNNAYQNSNLSVEVGSEGPLKGIQIWKVPATDTYSISGYGAAGGKGGKNTMMRSHGVSVLGIFNLEKDDMLYILVGQQGEDACPSTNQLIQKVCIGENNVIEEEIRVNRSVHEWAGGGGGGGGATYVFKMKDGVPVPLIIAAGGGGRAYGAKTDTFHPERLENNSSVLGLNGNSGAAGGGGGWNDNTSLLWAGKSLQEGATGGHSCPQAMKKWGWETRGGFGGGGGGCSSGGGGGGYIGGNAASNNDPEMDGEDGVSFISPLGILYTPALKVMEGHGEVNIKHYLNCSHCEVDECHMDPESHKVICFCDHGTVLAEDGVSCIVSPTPEPHLPLSLILSVVTSALVAALVLAFSGIMIVYRRKHQELQAMQMELQSPEYKLSKLRTSTIMTDYNPNYCFAGKTSSISDLKEVPRKNITLIRGLGHGAFGEVYEGQVSGMPNDPSPLQVAVKTLPEVCSEQDELDFLMEALIISKFNHQNIVRCIGVSLQSLPRFILLELMAGGDLKSFLRETRPRPSQPSSLAMLDLLHVARDIACGCQYLEENHFIHRDIAARNCLLTCPGPGRVAKIGDFGMARDIYRASYYRKGGCAMLPVKWMPPEAFMEGIFTSKTDTWSFGVLLWEIFSLGYMPYPSKSNQEVLEFVTSGGRMDPPKNCPGPVYRIMTQCWQHQPEDRPNFAIILERIEYCTQDPDVINTALPIEYGPLVEEEEKVPVRPKDPEGVPPLLVSQQAKREEERSPAAPPPLPTTSSGKAAKKPTAAEISVRVPRGPAVEGGHVNMAFSQSNPPSELHKVHGSRNKPTSLWNPTYGSWFTEKPTKKNNPIAKKEPHDRGNLGLEGSCTVPPNVATGRLPGASLLLEPSSLTANMKEVPLFRLRHFPCGNVNYGYQQQGLPLEAATAPGAGHYEDTILKSKNSMNQPGP

> <PDB ID(s) of Target Chain>
2XB7,2XBA,3AOX,5FTO,5FTQ,6E0R,6EBW,6EDL,6MX8

> <UniProt (SwissProt) Recommended Name of Target Chain>
ALK tyrosine kinase receptor

> <UniProt (SwissProt) Entry Name of Target Chain>
ALK_HUMAN

> <UniProt (SwissProt) Primary ID of Target Chain>
Q9UM73

> <UniProt (SwissProt) Secondary ID(s) of Target Chain>
Q4ZFX9,Q53QQ6,Q53RZ4,Q59FI3,Q9Y4K6

> <UniProt (SwissProt) Alternative ID(s) of Target Chain>


> <UniProt (TrEMBL) Submitted Name of Target Chain>


> <UniProt (TrEMBL) Entry Name of Target Chain>


> <UniProt (TrEMBL) Primary ID of Target Chain>


> <UniProt (TrEMBL) Secondary ID(s) of Target Chain>


> <UniProt (TrEMBL) Alternative ID(s) of Target Chain>


$$$$
BindingDB_50436855_mol_1

Vconf v2.0 Academic SN VC001-00000579
 87 90  0  0  0  0  0  0  0  0999 V2000
   -1.6860  -10.6770   -1.1730 O   0  0  0  0  0  0  0  0  0  0  0
   -0.7390  -11.3360   -2.2680 S   0  0  0  0  0  0  0  0  0  0  0
   -1.2150  -12.6590   -3.0140 O   0  0  0  0  0  0  0  0  0  0  0
    0.8840  -11.5970   -1.6840 C   0  0  0  0  0  0  0  0  0  0  0
    1.6390  -12.5930   -2.3350 C   0  0  0  0  0  0  0  0  0  0  0
    2.9470  -12.8830   -1.9230 C   0  0  0  0  0  0  0  0  0  0  0
    3.5060  -12.1820   -0.8480 C   0  0  0  0  0  0  0  0  0  0  0
    2.7630  -11.1810   -0.2040 C   0  0  0  0  0  0  0  0  0  0  0
    1.4500  -10.8510   -0.6190 C   0  0  0  0  0  0  0  0  0  0  0
    0.6890   -9.8440   -0.0810 N   0  0  0  0  0  0  0  0  0  0  0
    0.9680   -8.9370    0.9040 C   0  0  0  0  0  0  0  0  0  0  0
    2.1530   -8.9240    1.5620 N   0  0  0  0  0  0  0  0  0  0  0
    2.4780   -8.0270    2.5230 C   0  0  0  0  0  0  0  0  0  0  0
    1.5640   -7.0900    2.8590 N   0  0  0  0  0  0  0  0  0  0  0
    0.3530   -7.0350    2.2580 C   0  0  0  0  0  0  0  0  0  0  0
    0.0100   -7.9590    1.2560 C   0  0  0  0  0  0  0  0  0  0  0
   -0.6410  -10.1430   -3.6210 C   0  0  0  0  0  0  0  0  0  0  0
   -2.0480   -9.9290   -4.1960 C   0  0  0  0  0  0  0  0  0  0  0
   -0.0510   -8.8040   -3.1530 C   0  0  0  0  0  0  0  0  0  0  0
   -1.5150   -7.8460    0.5250 Cl  0  0  0  0  0  0  0  0  0  0  0
    3.6750   -8.0300    3.1600 N   0  0  0  0  0  0  0  0  0  0  0
    4.6730   -8.9230    2.9370 C   0  0  0  0  0  0  0  0  0  0  0
    5.2130   -9.1550    1.6550 C   0  0  0  0  0  0  0  0  0  0  0
    6.1960  -10.1490    1.5000 C   0  0  0  0  0  0  0  0  0  0  0
    6.7030  -10.8730    2.5990 C   0  0  0  0  0  0  0  0  0  0  0
    6.1930  -10.5950    3.8900 C   0  0  0  0  0  0  0  0  0  0  0
    5.1810   -9.6250    4.0440 C   0  0  0  0  0  0  0  0  0  0  0
    4.7280   -8.4200    0.6070 O   0  0  0  0  0  0  0  0  0  0  0
    5.1370   -8.5680   -0.7580 C   0  0  0  0  0  0  0  0  0  0  0
    7.7410  -11.9090    2.3480 C   0  0  0  0  0  0  0  0  0  0  0
    7.1450  -13.0920    1.5500 C   0  0  0  0  0  0  0  0  0  0  0
    8.2380  -14.1010    1.1620 C   0  0  0  0  0  0  0  0  0  0  0
    9.2460  -13.3940    0.4410 N   0  0  0  0  0  0  0  0  0  0  0
    9.9540  -12.4130    1.2000 C   0  0  0  0  0  0  0  0  0  0  0
    8.9710  -11.3120    1.6210 C   0  0  0  0  0  0  0  0  0  0  0
    4.0690   -7.8980   -1.6320 C   0  0  0  0  0  0  0  0  0  0  0
    6.4990   -7.8970   -1.0000 C   0  0  0  0  0  0  0  0  0  0  0
    6.6840  -11.3140    5.0790 C   0  0  0  0  0  0  0  0  0  0  0
    9.4120  -13.5680   -0.9050 C   0  0  0  0  0  0  0  0  0  0  0
   10.2190  -12.6540   -1.7300 C   0  0  0  0  0  0  0  0  0  0  0
    8.7790  -14.4650   -1.5070 O   0  0  0  0  0  0  0  0  0  0  0
    9.7120  -11.2630   -1.6500 N   0  0  0  0  0  0  0  0  0  0  0
   10.6450  -10.3530   -2.3360 C   0  0  0  0  0  0  0  0  0  0  0
    8.3690  -11.1290   -2.2520 C   0  0  0  0  0  0  0  0  0  0  0
    1.2340  -13.1140   -3.1120 H   0  0  0  0  0  0  0  0  0  0  0
    3.4850  -13.6070   -2.4000 H   0  0  0  0  0  0  0  0  0  0  0
    4.4550  -12.3950   -0.5380 H   0  0  0  0  0  0  0  0  0  0  0
    3.2070  -10.7010    0.5700 H   0  0  0  0  0  0  0  0  0  0  0
   -0.1900   -9.7420   -0.4730 H   0  0  0  0  0  0  0  0  0  0  0
   -0.3070   -6.3090    2.5410 H   0  0  0  0  0  0  0  0  0  0  0
   -0.0020  -10.5540   -4.4020 H   0  0  0  0  0  0  0  0  0  0  0
   -2.0020   -9.2410   -5.0410 H   0  0  0  0  0  0  0  0  0  0  0
   -2.4510  -10.8840   -4.5330 H   0  0  0  0  0  0  0  0  0  0  0
   -2.7020   -9.5170   -3.4270 H   0  0  0  0  0  0  0  0  0  0  0
   -0.0560   -8.0940   -3.9810 H   0  0  0  0  0  0  0  0  0  0  0
   -0.6460   -8.4040   -2.3330 H   0  0  0  0  0  0  0  0  0  0  0
    0.9760   -8.9490   -2.8180 H   0  0  0  0  0  0  0  0  0  0  0
    3.8030   -7.3820    3.8680 H   0  0  0  0  0  0  0  0  0  0  0
    6.5560  -10.3510    0.5680 H   0  0  0  0  0  0  0  0  0  0  0
    4.7990   -9.4370    4.9720 H   0  0  0  0  0  0  0  0  0  0  0
    5.1860   -9.6220   -1.0360 H   0  0  0  0  0  0  0  0  0  0  0
    8.1070  -12.3220    3.2890 H   0  0  0  0  0  0  0  0  0  0  0
    6.6720  -12.7340    0.6340 H   0  0  0  0  0  0  0  0  0  0  0
    6.3940  -13.6010    2.1570 H   0  0  0  0  0  0  0  0  0  0  0
    8.6700  -14.5420    2.0620 H   0  0  0  0  0  0  0  0  0  0  0
    7.7810  -14.8990    0.5740 H   0  0  0  0  0  0  0  0  0  0  0
   10.7720  -11.9550    0.6440 H   0  0  0  0  0  0  0  0  0  0  0
   10.3740  -12.8800    2.0920 H   0  0  0  0  0  0  0  0  0  0  0
    8.6700  -10.7810    0.7180 H   0  0  0  0  0  0  0  0  0  0  0
    9.4820  -10.6110    2.2820 H   0  0  0  0  0  0  0  0  0  0  0
    4.3260   -8.0180   -2.6850 H   0  0  0  0  0  0  0  0  0  0  0
    3.1020   -8.3650   -1.4450 H   0  0  0  0  0  0  0  0  0  0  0
    4.0060   -6.8370   -1.3920 H   0  0  0  0  0  0  0  0  0  0  0
    6.7640   -7.9790   -2.0550 H   0  0  0  0  0  0  0  0  0  0  0
    6.4430   -6.8440   -0.7230 H   0  0  0  0  0  0  0  0  0  0  0
    7.2700   -8.3830   -0.4030 H   0  0  0  0  0  0  0  0  0  0  0
    6.1760  -10.9840    5.9870 H   0  0  0  0  0  0  0  0  0  0  0
    6.5100  -12.3840    4.9560 H   0  0  0  0  0  0  0  0  0  0  0
    7.7540  -11.1330    5.1980 H   0  0  0  0  0  0  0  0  0  0  0
   11.2500  -12.6940   -1.3780 H   0  0  0  0  0  0  0  0  0  0  0
   10.2000  -12.9870   -2.7690 H   0  0  0  0  0  0  0  0  0  0  0
   10.2890   -9.3250   -2.2470 H   0  0  0  0  0  0  0  0  0  0  0
   11.6320  -10.4190   -1.8770 H   0  0  0  0  0  0  0  0  0  0  0
   10.7240  -10.6140   -3.3930 H   0  0  0  0  0  0  0  0  0  0  0
    8.0470  -10.0880   -2.2090 H   0  0  0  0  0  0  0  0  0  0  0
    8.3850  -11.4550   -3.2930 H   0  0  0  0  0  0  0  0  0  0  0
    7.6450  -11.7310   -1.7010 H   0  0  0  0  0  0  0  0  0  0  0
  1  2  2  0  0  0  0
  2  3  2  0  0  0  0
  2  4  1  0  0  0  0
  2 17  1  0  0  0  0
  4  5  2  0  0  0  0
  4  9  1  0  0  0  0
  5  6  1  0  0  0  0
  5 45  1  0  0  0  0
  6  7  2  0  0  0  0
  6 46  1  0  0  0  0
  7  8  1  0  0  0  0
  7 47  1  0  0  0  0
  8  9  2  0  0  0  0
  8 48  1  0  0  0  0
  9 10  1  0  0  0  0
 10 11  1  0  0  0  0
 10 49  1  0  0  0  0
 11 12  2  0  0  0  0
 11 16  1  0  0  0  0
 12 13  1  0  0  0  0
 13 14  2  0  0  0  0
 13 21  1  0  0  0  0
 14 15  1  0  0  0  0
 15 16  2  0  0  0  0
 15 50  1  0  0  0  0
 16 20  1  0  0  0  0
 17 18  1  0  0  0  0
 17 19  1  0  0  0  0
 17 51  1  0  0  0  0
 18 52  1  0  0  0  0
 18 53  1  0  0  0  0
 18 54  1  0  0  0  0
 19 55  1  0  0  0  0
 19 56  1  0  0  0  0
 19 57  1  0  0  0  0
 21 22  1  0  0  0  0
 21 58  1  0  0  0  0
 22 23  2  0  0  0  0
 22 27  1  0  0  0  0
 23 24  1  0  0  0  0
 23 28  1  0  0  0  0
 24 25  2  0  0  0  0
 24 59  1  0  0  0  0
 25 26  1  0  0  0  0
 25 30  1  0  0  0  0
 26 27  2  0  0  0  0
 26 38  1  0  0  0  0
 27 60  1  0  0  0  0
 28 29  1  0  0  0  0
 29 36  1  0  0  0  0
 29 37  1  0  0  0  0
 29 61  1  0  0  0  0
 30 31  1  0  0  0  0
 30 35  1  0  0  0  0
 30 62  1  0  0  0  0
 31 32  1  0  0  0  0
 31 63  1  0  0  0  0
 31 64  1  0  0  0  0
 32 33  1  0  0  0  0
 32 65  1  0  0  0  0
 32 66  1  0  0  0  0
 33 34  1  0  0  0  0
 33 39  1  0  0  0  0
 34 35  1  0  0  0  0
 34 67  1  0  0  0  0
 34 68  1  0  0  0  0
 35 69  1  0  0  0  0
 35 70  1  0  0  0  0
 36 71  1  0  0  0  0
 36 72  1  0  0  0  0
 36 73  1  0  0  0  0
 37 74  1  0  0  0  0
 37 75  1  0  0  0  0
 37 76  1  0  0  0  0
 38 77  1  0  0  0  0
 38 78  1  0  0  0  0
 38 79  1  0  0  0  0
 39 40  1  0  0  0  0
 39 41  2  0  0  0  0
 40 42  1  0  0  0  0
 40 80  1  0  0  0  0
 40 81  1  0  0  0  0
 42 43  1  0  0  0  0
 42 44  1  0  0  0  0
 43 82  1  0  0  0  0
 43 83  1  0  0  0  0
 43 84  1  0  0  0  0
 44 85  1  0  0  0  0
 44 86  1  0  0  0  0
 44 87  1  0  0  0  0
M  END
> <From>
www.bindingDB.org

> <BindingDB Reactant_set_id>
226241

> <Ligand InChI>
InChI=1S/C32H43ClN6O4S/c1-20(2)43-28-17-24(23-12-14-39(15-13-23)30(40)19-38(6)7)22(5)16-27(28)36-32-34-18-25(33)31(37-32)35-26-10-8-9-11-29(26)44(41,42)21(3)4/h8-11,16-18,20-21,23H,12-15,19H2,1-7H3,(H2,34,35,36,37)

> <Ligand InChI Key>
ADAQBVKANMBBGO-UHFFFAOYSA-N

> <BindingDB MonomerID>
50436855

> <BindingDB Ligand Name>
CHEMBL2403842::US8592432, 1

> <Target Name Assigned by Curator or DataSource>
ALK tyrosine kinase receptor

> <Target Source Organism According to Curator or DataSource>
Homo sapiens

> <Ki (nM)>


> <IC50 (nM)>
 26

> <Kd (nM)>


> <EC50 (nM)>


> <kon (M-1-s-1)>


> <koff (s-1)>


> <pH>


> <Temp C>


> <Curation/DataSource>
US Patent

> <Article DOI>


> <PMID>


> <PubChem AID>


> <Patent Number>
US8592432

> <Authors>
Chen, B; Jiang, T; Marsilje, TH; Michellys, P; Nguyen, TN; Pei, W; Wu, B; Gao, Z; Ge, Y; Huang, C; Li, Y; Zhu, X

> <Institution>
TBA

> <Link to Ligand in BindingDB>
http://www.bindingdb.org/bind/chemsearch/marvin/MolStructure.jsp?monomerid=50436855

> <Link to Ligand-Target Pair in BindingDB>
http://www.bindingdb.org/jsp/dbsearch/PrimarySearch_ki.jsp?energyterm=kJ/mole&tag=pol&polymerid=5809&target=ALK+tyrosine+kinase+receptor&column=ki&startPg=0&Increment=50&submit=Search

> <Link to Ligand-Target Pair in BindingDB>
http://www.bindingdb.org/jsp/dbsearch/PrimarySearch_ki.jsp?energyterm=kJ/mole&tag=r21&monomerid=50436855&enzyme=ALK+tyrosine+kinase+receptor&column=ki&startPg=0&Increment=50&submit=Search

> <Ligand HET ID in PDB>


> <PDB ID(s) for Ligand-Target Complex>


> <PubChem CID>
58290872

> <PubChem SID>
175449172

> <ChEBI ID of Ligand>


> <ChEMBL ID of Ligand>
CHEMBL2403842

> <DrugBank ID of Ligand>


> <IUPHAR_GRAC ID of Ligand>


> <KEGG ID of Ligand>


> <ZINC ID of Ligand>
ZINC96272777

> <Number of Protein Chains in Target (>1 implies a multichain complex)>
1

> <BindingDB Target Chain Sequence>
MGAIGLLWLLPLLLSTAAVGSGMGTGQRAGSPAAGPPLQPREPLSYSRLQRKSLAVDFVVPSLFRVYARDLLLPPSSSELKAGRPEARGSLALDCAPLLRLLGPAPGVSWTAGSPAPAEARTLSRVLKGGSVRKLRRAKQLVLELGEEAILEGCVGPPGEAAVGLLQFNLSELFSWWIRQGEGRLRIRLMPEKKASEVGREGRLSAAIRASQPRLLFQIFGTGHSSLESPTNMPSPSPDYFTWNLTWIMKDSFPFLSHRSRYGLECSFDFPCELEYSPPLHDLRNQSWSWRRIPSEEASQMDLLDGPGAERSKEMPRGSFLLLNTSADSKHTILSPWMRSSSEHCTLAVSVHRHLQPSGRYIAQLLPHNEAAREILLMPTPGKHGWTVLQGRIGRPDNPFRVALEYISSGNRSLSAVDFFALKNCSEGTSPGSKMALQSSFTCWNGTVLQLGQACDFHQDCAQGEDESQMCRKLPVGFYCNFEDGFCGWTQGTLSPHTPQWQVRTLKDARFQDHQDHALLLSTTDVPASESATVTSATFPAPIKSSPCELRMSWLIRGVLRGNVSLVLVENKTGKEQGRMVWHVAAYEGLSLWQWMVLPLLDVSDRFWLQMVAWWGQGSRAIVAFDNISISLDCYLTISGEDKILQNTAPKSRNLFERNPNKELKPGENSPRQTPIFDPTVHWLFTTCGASGPHGPTQAQCNNAYQNSNLSVEVGSEGPLKGIQIWKVPATDTYSISGYGAAGGKGGKNTMMRSHGVSVLGIFNLEKDDMLYILVGQQGEDACPSTNQLIQKVCIGENNVIEEEIRVNRSVHEWAGGGGGGGGATYVFKMKDGVPVPLIIAAGGGGRAYGAKTDTFHPERLENNSSVLGLNGNSGAAGGGGGWNDNTSLLWAGKSLQEGATGGHSCPQAMKKWGWETRGGFGGGGGGCSSGGGGGGYIGGNAASNNDPEMDGEDGVSFISPLGILYTPALKVMEGHGEVNIKHYLNCSHCEVDECHMDPESHKVICFCDHGTVLAEDGVSCIVSPTPEPHLPLSLILSVVTSALVAALVLAFSGIMIVYRRKHQELQAMQMELQSPEYKLSKLRTSTIMTDYNPNYCFAGKTSSISDLKEVPRKNITLIRGLGHGAFGEVYEGQVSGMPNDPSPLQVAVKTLPEVCSEQDELDFLMEALIISKFNHQNIVRCIGVSLQSLPRFILLELMAGGDLKSFLRETRPRPSQPSSLAMLDLLHVARDIACGCQYLEENHFIHRDIAARNCLLTCPGPGRVAKIGDFGMARDIYRASYYRKGGCAMLPVKWMPPEAFMEGIFTSKTDTWSFGVLLWEIFSLGYMPYPSKSNQEVLEFVTSGGRMDPPKNCPGPVYRIMTQCWQHQPEDRPNFAIILERIEYCTQDPDVINTALPIEYGPLVEEEEKVPVRPKDPEGVPPLLVSQQAKREEERSPAAPPPLPTTSSGKAAKKPTAAEISVRVPRGPAVEGGHVNMAFSQSNPPSELHKVHGSRNKPTSLWNPTYGSWFTEKPTKKNNPIAKKEPHDRGNLGLEGSCTVPPNVATGRLPGASLLLEPSSLTANMKEVPLFRLRHFPCGNVNYGYQQQGLPLEAATAPGAGHYEDTILKSKNSMNQPGP

> <PDB ID(s) of Target Chain>
2XB7,2XBA,3AOX,5FTO,5FTQ,6E0R,6EBW,6EDL,6MX8

> <UniProt (SwissProt) Recommended Name of Target Chain>
ALK tyrosine kinase receptor

> <UniProt (SwissProt) Entry Name of Target Chain>
ALK_HUMAN

> <UniProt (SwissProt) Primary ID of Target Chain>
Q9UM73

> <UniProt (SwissProt) Secondary ID(s) of Target Chain>
Q4ZFX9,Q53QQ6,Q53RZ4,Q59FI3,Q9Y4K6

> <UniProt (SwissProt) Alternative ID(s) of Target Chain>


> <UniProt (TrEMBL) Submitted Name of Target Chain>


> <UniProt (TrEMBL) Entry Name of Target Chain>


> <UniProt (TrEMBL) Primary ID of Target Chain>


> <UniProt (TrEMBL) Secondary ID(s) of Target Chain>


> <UniProt (TrEMBL) Alternative ID(s) of Target Chain>


$$$$
BindingDB_50436856_mol_1

Vconf v2.0 Academic SN VC001-00000579
 76 79  0  0  0  0  0  0  0  0999 V2000
   -1.1060  -25.4750   -1.3440 O   0  0  0  0  0  0  0  0  0  0  0
   -0.0090  -25.9410   -2.3960 S   0  0  0  0  0  0  0  0  0  0  0
   -0.3580  -27.0300   -3.5030 O   0  0  0  0  0  0  0  0  0  0  0
    1.4280  -26.4430   -1.5460 C   0  0  0  0  0  0  0  0  0  0  0
    2.1280  -27.5570   -2.0520 C   0  0  0  0  0  0  0  0  0  0  0
    3.3050  -28.0030   -1.4360 C   0  0  0  0  0  0  0  0  0  0  0
    3.7810  -27.3440   -0.2960 C   0  0  0  0  0  0  0  0  0  0  0
    3.0870  -26.2380    0.2180 C   0  0  0  0  0  0  0  0  0  0  0
    1.9060  -25.7570   -0.4000 C   0  0  0  0  0  0  0  0  0  0  0
    1.1690  -24.6870    0.0400 N   0  0  0  0  0  0  0  0  0  0  0
    1.4130  -23.7980    1.0500 C   0  0  0  0  0  0  0  0  0  0  0
    2.5850  -23.7930    1.7300 N   0  0  0  0  0  0  0  0  0  0  0
    2.8810  -22.9240    2.7260 C   0  0  0  0  0  0  0  0  0  0  0
    1.9490  -22.0090    3.0750 N   0  0  0  0  0  0  0  0  0  0  0
    0.7540  -21.9410    2.4430 C   0  0  0  0  0  0  0  0  0  0  0
    0.4440  -22.8310    1.3990 C   0  0  0  0  0  0  0  0  0  0  0
    0.4460  -24.5920   -3.3060 N   0  0  0  0  0  0  0  0  0  0  0
   -0.0500  -23.3100   -2.9520 C   0  0  0  0  0  0  0  0  0  0  0
    1.3010  -24.7740   -4.4270 C   0  0  0  0  0  0  0  0  0  0  0
   -1.0690  -22.7160    0.6440 Cl  0  0  0  0  0  0  0  0  0  0  0
    4.0710  -22.9530    3.3710 N   0  0  0  0  0  0  0  0  0  0  0
    5.0620  -23.8340    3.0820 C   0  0  0  0  0  0  0  0  0  0  0
    5.7040  -23.8390    1.8270 C   0  0  0  0  0  0  0  0  0  0  0
    6.6980  -24.7980    1.5620 C   0  0  0  0  0  0  0  0  0  0  0
    7.0700  -25.7560    2.5280 C   0  0  0  0  0  0  0  0  0  0  0
    6.4290  -25.7390    3.7930 C   0  0  0  0  0  0  0  0  0  0  0
    5.4460  -24.7650    4.0620 C   0  0  0  0  0  0  0  0  0  0  0
    5.3120  -22.9340    0.8840 O   0  0  0  0  0  0  0  0  0  0  0
    6.2430  -22.2450    0.0420 C   0  0  0  0  0  0  0  0  0  0  0
    8.1150  -26.7530    2.1780 C   0  0  0  0  0  0  0  0  0  0  0
    7.6940  -27.6260    0.9780 C   0  0  0  0  0  0  0  0  0  0  0
    8.8020  -28.6420    0.6690 C   0  0  0  0  0  0  0  0  0  0  0
   10.0620  -27.9400    0.3560 N   0  0  0  0  0  0  0  0  0  0  0
   10.5150  -27.1420    1.5130 C   0  0  0  0  0  0  0  0  0  0  0
    9.4680  -26.0770    1.8690 C   0  0  0  0  0  0  0  0  0  0  0
    5.4270  -21.4310   -0.9700 C   0  0  0  0  0  0  0  0  0  0  0
    7.1310  -21.3090    0.8800 C   0  0  0  0  0  0  0  0  0  0  0
    6.7460  -26.7320    4.8370 C   0  0  0  0  0  0  0  0  0  0  0
   11.0950  -28.9260   -0.0040 C   0  0  0  0  0  0  0  0  0  0  0
    1.7820  -28.0460   -2.8790 H   0  0  0  0  0  0  0  0  0  0  0
    3.8060  -28.8090   -1.8090 H   0  0  0  0  0  0  0  0  0  0  0
    4.6310  -27.6690    0.1640 H   0  0  0  0  0  0  0  0  0  0  0
    3.4620  -25.8030    1.0560 H   0  0  0  0  0  0  0  0  0  0  0
    0.3380  -24.5320   -0.4340 H   0  0  0  0  0  0  0  0  0  0  0
    0.0770  -21.2350    2.7390 H   0  0  0  0  0  0  0  0  0  0  0
    0.2800  -22.5480   -3.6590 H   0  0  0  0  0  0  0  0  0  0  0
   -1.1410  -23.3350   -2.9440 H   0  0  0  0  0  0  0  0  0  0  0
    0.3090  -23.0470   -1.9590 H   0  0  0  0  0  0  0  0  0  0  0
    1.5260  -23.8220   -4.9110 H   0  0  0  0  0  0  0  0  0  0  0
    2.2340  -25.2320   -4.0980 H   0  0  0  0  0  0  0  0  0  0  0
    0.8180  -25.4310   -5.1510 H   0  0  0  0  0  0  0  0  0  0  0
    4.2060  -22.3350    4.1040 H   0  0  0  0  0  0  0  0  0  0  0
    7.1440  -24.8130    0.6460 H   0  0  0  0  0  0  0  0  0  0  0
    4.9850  -24.7500    4.9720 H   0  0  0  0  0  0  0  0  0  0  0
    6.8690  -22.9470   -0.5110 H   0  0  0  0  0  0  0  0  0  0  0
    8.2850  -27.4300    3.0140 H   0  0  0  0  0  0  0  0  0  0  0
    7.5300  -27.0120    0.0910 H   0  0  0  0  0  0  0  0  0  0  0
    6.7750  -28.1620    1.2170 H   0  0  0  0  0  0  0  0  0  0  0
    8.9380  -29.3010    1.5290 H   0  0  0  0  0  0  0  0  0  0  0
    8.4900  -29.2400   -0.1890 H   0  0  0  0  0  0  0  0  0  0  0
   11.4490  -26.6360    1.2650 H   0  0  0  0  0  0  0  0  0  0  0
   10.6820  -27.7880    2.3770 H   0  0  0  0  0  0  0  0  0  0  0
    9.3720  -25.3920    1.0260 H   0  0  0  0  0  0  0  0  0  0  0
    9.8090  -25.5210    2.7430 H   0  0  0  0  0  0  0  0  0  0  0
    6.0980  -20.8890   -1.6370 H   0  0  0  0  0  0  0  0  0  0  0
    4.8040  -22.1060   -1.5590 H   0  0  0  0  0  0  0  0  0  0  0
    4.7880  -20.7220   -0.4440 H   0  0  0  0  0  0  0  0  0  0  0
    7.7820  -20.7300    0.2250 H   0  0  0  0  0  0  0  0  0  0  0
    6.5030  -20.6310    1.4600 H   0  0  0  0  0  0  0  0  0  0  0
    7.7450  -21.8990    1.5610 H   0  0  0  0  0  0  0  0  0  0  0
    6.1540  -26.5650    5.7390 H   0  0  0  0  0  0  0  0  0  0  0
    6.5270  -27.7340    4.4650 H   0  0  0  0  0  0  0  0  0  0  0
    7.8020  -26.6680    5.1020 H   0  0  0  0  0  0  0  0  0  0  0
   12.0310  -28.4160   -0.2320 H   0  0  0  0  0  0  0  0  0  0  0
   11.2570  -29.6210    0.8200 H   0  0  0  0  0  0  0  0  0  0  0
   10.7770  -29.4820   -0.8860 H   0  0  0  0  0  0  0  0  0  0  0
  1  2  2  0  0  0  0
  2  3  2  0  0  0  0
  2  4  1  0  0  0  0
  2 17  1  0  0  0  0
  4  5  2  0  0  0  0
  4  9  1  0  0  0  0
  5  6  1  0  0  0  0
  5 40  1  0  0  0  0
  6  7  2  0  0  0  0
  6 41  1  0  0  0  0
  7  8  1  0  0  0  0
  7 42  1  0  0  0  0
  8  9  2  0  0  0  0
  8 43  1  0  0  0  0
  9 10  1  0  0  0  0
 10 11  1  0  0  0  0
 10 44  1  0  0  0  0
 11 12  2  0  0  0  0
 11 16  1  0  0  0  0
 12 13  1  0  0  0  0
 13 14  2  0  0  0  0
 13 21  1  0  0  0  0
 14 15  1  0  0  0  0
 15 16  2  0  0  0  0
 15 45  1  0  0  0  0
 16 20  1  0  0  0  0
 17 18  1  0  0  0  0
 17 19  1  0  0  0  0
 18 46  1  0  0  0  0
 18 47  1  0  0  0  0
 18 48  1  0  0  0  0
 19 49  1  0  0  0  0
 19 50  1  0  0  0  0
 19 51  1  0  0  0  0
 21 22  1  0  0  0  0
 21 52  1  0  0  0  0
 22 23  2  0  0  0  0
 22 27  1  0  0  0  0
 23 24  1  0  0  0  0
 23 28  1  0  0  0  0
 24 25  2  0  0  0  0
 24 53  1  0  0  0  0
 25 26  1  0  0  0  0
 25 30  1  0  0  0  0
 26 27  2  0  0  0  0
 26 38  1  0  0  0  0
 27 54  1  0  0  0  0
 28 29  1  0  0  0  0
 29 36  1  0  0  0  0
 29 37  1  0  0  0  0
 29 55  1  0  0  0  0
 30 31  1  0  0  0  0
 30 35  1  0  0  0  0
 30 56  1  0  0  0  0
 31 32  1  0  0  0  0
 31 57  1  0  0  0  0
 31 58  1  0  0  0  0
 32 33  1  0  0  0  0
 32 59  1  0  0  0  0
 32 60  1  0  0  0  0
 33 34  1  0  0  0  0
 33 39  1  0  0  0  0
 34 35  1  0  0  0  0
 34 61  1  0  0  0  0
 34 62  1  0  0  0  0
 35 63  1  0  0  0  0
 35 64  1  0  0  0  0
 36 65  1  0  0  0  0
 36 66  1  0  0  0  0
 36 67  1  0  0  0  0
 37 68  1  0  0  0  0
 37 69  1  0  0  0  0
 37 70  1  0  0  0  0
 38 71  1  0  0  0  0
 38 72  1  0  0  0  0
 38 73  1  0  0  0  0
 39 74  1  0  0  0  0
 39 75  1  0  0  0  0
 39 76  1  0  0  0  0
M  END
> <From>
www.bindingDB.org

> <BindingDB Reactant_set_id>
51069470

> <Ligand InChI>
InChI=1S/C28H37ClN6O3S/c1-18(2)38-25-16-21(20-11-13-35(6)14-12-20)19(3)15-24(25)32-28-30-17-22(29)27(33-28)31-23-9-7-8-10-26(23)39(36,37)34(4)5/h7-10,15-18,20H,11-14H2,1-6H3,(H2,30,31,32,33)

> <Ligand InChI Key>
MFPZJISOIZABEX-UHFFFAOYSA-N

> <BindingDB MonomerID>
50436856

> <BindingDB Ligand Name>
CHEMBL2403833

> <Target Name Assigned by Curator or DataSource>
ALK tyrosine kinase receptor

> <Target Source Organism According to Curator or DataSource>
Homo sapiens

> <Ki (nM)>


> <IC50 (nM)>
 25

> <Kd (nM)>


> <EC50 (nM)>


> <kon (M-1-s-1)>


> <koff (s-1)>


> <pH>


> <Temp C>


> <Curation/DataSource>
ChEMBL

> <Article DOI>
10.1021/jm400402q

> <PMID>
23742252

> <PubChem AID>


> <Patent Number>


> <Authors>
Marsilje, TH; Pei, W; Chen, B; Lu, W; Uno, T; Jin, Y; Jiang, T; Kim, S; Li, N; Warmuth, M; Sarkisova, Y; Sun, F; Steffy, A; Pferdekamper, AC; Li, AG; Joseph, SB; Kim, Y; Liu, B; Tuntland, T; Cui, X; Gray, NS; Steensma, R; Wan, Y; Jiang, J; Chopiuk, G; Li, J; Gordon, WP; Richmond, W; Johnson, K; Chang, J; Groessl, T; He, YQ; Phimister, A; Aycinena, A; Lee, CC; Bursulaya, B; Karanewsky, DS; Seidel, HM; Harris, JL; Michellys, PY

> <Institution>
Genomics Institute of the Novartis Research Foundation 

> <Link to Ligand in BindingDB>
http://www.bindingdb.org/bind/chemsearch/marvin/MolStructure.jsp?monomerid=50436856

> <Link to Ligand-Target Pair in BindingDB>
http://www.bindingdb.org/jsp/dbsearch/PrimarySearch_ki.jsp?energyterm=kJ/mole&tag=pol&polymerid=5809&target=ALK+tyrosine+kinase+receptor&column=ki&startPg=0&Increment=50&submit=Search

> <Link to Ligand-Target Pair in BindingDB>
http://www.bindingdb.org/jsp/dbsearch/PrimarySearch_ki.jsp?energyterm=kJ/mole&tag=r21&monomerid=50436856&enzyme=ALK+tyrosine+kinase+receptor&column=ki&startPg=0&Increment=50&submit=Search

> <Ligand HET ID in PDB>


> <PDB ID(s) for Ligand-Target Complex>


> <PubChem CID>
25160012

> <PubChem SID>
175449173

> <ChEBI ID of Ligand>


> <ChEMBL ID of Ligand>
CHEMBL2403833

> <DrugBank ID of Ligand>


> <IUPHAR_GRAC ID of Ligand>


> <KEGG ID of Ligand>


> <ZINC ID of Ligand>
ZINC96272778

> <Number of Protein Chains in Target (>1 implies a multichain complex)>
1

> <BindingDB Target Chain Sequence>
MGAIGLLWLLPLLLSTAAVGSGMGTGQRAGSPAAGPPLQPREPLSYSRLQRKSLAVDFVVPSLFRVYARDLLLPPSSSELKAGRPEARGSLALDCAPLLRLLGPAPGVSWTAGSPAPAEARTLSRVLKGGSVRKLRRAKQLVLELGEEAILEGCVGPPGEAAVGLLQFNLSELFSWWIRQGEGRLRIRLMPEKKASEVGREGRLSAAIRASQPRLLFQIFGTGHSSLESPTNMPSPSPDYFTWNLTWIMKDSFPFLSHRSRYGLECSFDFPCELEYSPPLHDLRNQSWSWRRIPSEEASQMDLLDGPGAERSKEMPRGSFLLLNTSADSKHTILSPWMRSSSEHCTLAVSVHRHLQPSGRYIAQLLPHNEAAREILLMPTPGKHGWTVLQGRIGRPDNPFRVALEYISSGNRSLSAVDFFALKNCSEGTSPGSKMALQSSFTCWNGTVLQLGQACDFHQDCAQGEDESQMCRKLPVGFYCNFEDGFCGWTQGTLSPHTPQWQVRTLKDARFQDHQDHALLLSTTDVPASESATVTSATFPAPIKSSPCELRMSWLIRGVLRGNVSLVLVENKTGKEQGRMVWHVAAYEGLSLWQWMVLPLLDVSDRFWLQMVAWWGQGSRAIVAFDNISISLDCYLTISGEDKILQNTAPKSRNLFERNPNKELKPGENSPRQTPIFDPTVHWLFTTCGASGPHGPTQAQCNNAYQNSNLSVEVGSEGPLKGIQIWKVPATDTYSISGYGAAGGKGGKNTMMRSHGVSVLGIFNLEKDDMLYILVGQQGEDACPSTNQLIQKVCIGENNVIEEEIRVNRSVHEWAGGGGGGGGATYVFKMKDGVPVPLIIAAGGGGRAYGAKTDTFHPERLENNSSVLGLNGNSGAAGGGGGWNDNTSLLWAGKSLQEGATGGHSCPQAMKKWGWETRGGFGGGGGGCSSGGGGGGYIGGNAASNNDPEMDGEDGVSFISPLGILYTPALKVMEGHGEVNIKHYLNCSHCEVDECHMDPESHKVICFCDHGTVLAEDGVSCIVSPTPEPHLPLSLILSVVTSALVAALVLAFSGIMIVYRRKHQELQAMQMELQSPEYKLSKLRTSTIMTDYNPNYCFAGKTSSISDLKEVPRKNITLIRGLGHGAFGEVYEGQVSGMPNDPSPLQVAVKTLPEVCSEQDELDFLMEALIISKFNHQNIVRCIGVSLQSLPRFILLELMAGGDLKSFLRETRPRPSQPSSLAMLDLLHVARDIACGCQYLEENHFIHRDIAARNCLLTCPGPGRVAKIGDFGMARDIYRASYYRKGGCAMLPVKWMPPEAFMEGIFTSKTDTWSFGVLLWEIFSLGYMPYPSKSNQEVLEFVTSGGRMDPPKNCPGPVYRIMTQCWQHQPEDRPNFAIILERIEYCTQDPDVINTALPIEYGPLVEEEEKVPVRPKDPEGVPPLLVSQQAKREEERSPAAPPPLPTTSSGKAAKKPTAAEISVRVPRGPAVEGGHVNMAFSQSNPPSELHKVHGSRNKPTSLWNPTYGSWFTEKPTKKNNPIAKKEPHDRGNLGLEGSCTVPPNVATGRLPGASLLLEPSSLTANMKEVPLFRLRHFPCGNVNYGYQQQGLPLEAATAPGAGHYEDTILKSKNSMNQPGP

> <PDB ID(s) of Target Chain>
2XB7,2XBA,3AOX,5FTO,5FTQ,6E0R,6EBW,6EDL,6MX8

> <UniProt (SwissProt) Recommended Name of Target Chain>
ALK tyrosine kinase receptor

> <UniProt (SwissProt) Entry Name of Target Chain>
ALK_HUMAN

> <UniProt (SwissProt) Primary ID of Target Chain>
Q9UM73

> <UniProt (SwissProt) Secondary ID(s) of Target Chain>
Q4ZFX9,Q53QQ6,Q53RZ4,Q59FI3,Q9Y4K6

> <UniProt (SwissProt) Alternative ID(s) of Target Chain>


> <UniProt (TrEMBL) Submitted Name of Target Chain>


> <UniProt (TrEMBL) Entry Name of Target Chain>


> <UniProt (TrEMBL) Primary ID of Target Chain>


> <UniProt (TrEMBL) Secondary ID(s) of Target Chain>


> <UniProt (TrEMBL) Alternative ID(s) of Target Chain>


$$$$
BindingDB_50436857_mol_1

Vconf v2.0 Academic SN VC001-00000579
 88 92  0  0  0  0  0  0  0  0999 V2000
   30.2780   -2.5950   -0.4850 O   0  0  0  0  0  0  0  0  0  0  0
   28.7300   -2.7180   -0.1400 S   0  0  0  0  0  0  0  0  0  0  0
   28.2460   -2.3450    1.3280 O   0  0  0  0  0  0  0  0  0  0  0
   28.1780   -4.3040   -0.6180 C   0  0  0  0  0  0  0  0  0  0  0
   28.9790   -5.0110   -1.5360 C   0  0  0  0  0  0  0  0  0  0  0
   28.5970   -6.2800   -1.9940 C   0  0  0  0  0  0  0  0  0  0  0
   27.4070   -6.8530   -1.5300 C   0  0  0  0  0  0  0  0  0  0  0
   26.6030   -6.1550   -0.6160 C   0  0  0  0  0  0  0  0  0  0  0
   26.9620   -4.8640   -0.1500 C   0  0  0  0  0  0  0  0  0  0  0
   26.2210   -4.1180    0.7310 N   0  0  0  0  0  0  0  0  0  0  0
   24.9800   -4.3410    1.2580 C   0  0  0  0  0  0  0  0  0  0  0
   24.2150   -5.3830    0.8550 N   0  0  0  0  0  0  0  0  0  0  0
   22.9780   -5.6500    1.3350 C   0  0  0  0  0  0  0  0  0  0  0
   22.4690   -4.8300    2.2810 N   0  0  0  0  0  0  0  0  0  0  0
   23.1630   -3.7590    2.7340 C   0  0  0  0  0  0  0  0  0  0  0
   24.4430   -3.4680    2.2290 C   0  0  0  0  0  0  0  0  0  0  0
   27.9660   -1.4870   -1.2230 C   0  0  0  0  0  0  0  0  0  0  0
   28.3410   -1.7390   -2.6920 C   0  0  0  0  0  0  0  0  0  0  0
   26.4380   -1.4660   -1.0660 C   0  0  0  0  0  0  0  0  0  0  0
   25.2700   -2.1090    2.8120 Cl  0  0  0  0  0  0  0  0  0  0  0
   22.2540   -6.7030    0.8890 N   0  0  0  0  0  0  0  0  0  0  0
   22.6990   -7.5270   -0.0900 C   0  0  0  0  0  0  0  0  0  0  0
   22.6400   -7.1260   -1.4410 C   0  0  0  0  0  0  0  0  0  0  0
   23.1850   -7.9630   -2.4360 C   0  0  0  0  0  0  0  0  0  0  0
   23.7960   -9.1860   -2.0930 C   0  0  0  0  0  0  0  0  0  0  0
   23.8360   -9.5800   -0.7420 C   0  0  0  0  0  0  0  0  0  0  0
   23.2850   -8.7580    0.2550 C   0  0  0  0  0  0  0  0  0  0  0
   24.3630   -9.9670   -3.0530 N   0  0  0  0  0  0  0  0  0  0  0
   24.0150  -11.3400   -3.2130 C   0  0  0  0  0  0  0  0  0  0  0
   25.2630  -12.2150   -3.0170 C   0  0  0  0  0  0  0  0  0  0  0
   26.4090  -11.7830   -3.9590 C   0  0  0  0  0  0  0  0  0  0  0
   26.6590  -10.2720   -3.7460 C   0  0  0  0  0  0  0  0  0  0  0
   25.3680   -9.4600   -3.9270 C   0  0  0  0  0  0  0  0  0  0  0
   27.6190  -12.6130   -3.6950 N   0  0  0  0  0  0  0  0  0  0  0
   28.8460  -12.0360   -4.2940 C   0  0  0  0  0  0  0  0  0  0  0
   30.0710  -12.9310   -4.0510 C   0  0  0  0  0  0  0  0  0  0  0
   29.8400  -14.2680   -4.6200 N   0  0  0  0  0  0  0  0  0  0  0
   28.6590  -14.8630   -3.9720 C   0  0  0  0  0  0  0  0  0  0  0
   27.4290  -13.9820   -4.2310 C   0  0  0  0  0  0  0  0  0  0  0
   22.0500   -5.9250   -1.7210 O   0  0  0  0  0  0  0  0  0  0  0
   22.4730   -5.0650   -2.7850 C   0  0  0  0  0  0  0  0  0  0  0
   31.0200  -15.1210   -4.3970 C   0  0  0  0  0  0  0  0  0  0  0
   21.4860   -3.8920   -2.8460 C   0  0  0  0  0  0  0  0  0  0  0
   23.8890   -4.5240   -2.5300 C   0  0  0  0  0  0  0  0  0  0  0
   29.8460   -4.5970   -1.8780 H   0  0  0  0  0  0  0  0  0  0  0
   29.1840   -6.7840   -2.6590 H   0  0  0  0  0  0  0  0  0  0  0
   27.1240   -7.7780   -1.8540 H   0  0  0  0  0  0  0  0  0  0  0
   25.7590   -6.6200   -0.2930 H   0  0  0  0  0  0  0  0  0  0  0
   26.6350   -3.2950    1.0270 H   0  0  0  0  0  0  0  0  0  0  0
   22.7400   -3.1630    3.4480 H   0  0  0  0  0  0  0  0  0  0  0
   28.3530   -0.5090   -0.9340 H   0  0  0  0  0  0  0  0  0  0  0
   27.9500   -0.9350   -3.3140 H   0  0  0  0  0  0  0  0  0  0  0
   29.4260   -1.7690   -2.7900 H   0  0  0  0  0  0  0  0  0  0  0
   27.9240   -2.6880   -3.0280 H   0  0  0  0  0  0  0  0  0  0  0
   26.0220   -0.6530   -1.6620 H   0  0  0  0  0  0  0  0  0  0  0
   26.0120   -2.4100   -1.4030 H   0  0  0  0  0  0  0  0  0  0  0
   26.1830   -1.3060   -0.0200 H   0  0  0  0  0  0  0  0  0  0  0
   21.3820   -6.8660    1.2780 H   0  0  0  0  0  0  0  0  0  0  0
   23.1440   -7.6810   -3.4150 H   0  0  0  0  0  0  0  0  0  0  0
   24.2790  -10.4600   -0.4790 H   0  0  0  0  0  0  0  0  0  0  0
   23.3380   -9.0440    1.2340 H   0  0  0  0  0  0  0  0  0  0  0
   23.6280  -11.4930   -4.2210 H   0  0  0  0  0  0  0  0  0  0  0
   23.2480  -11.6530   -2.5010 H   0  0  0  0  0  0  0  0  0  0  0
   25.5990  -12.1320   -1.9820 H   0  0  0  0  0  0  0  0  0  0  0
   24.9780  -13.2470   -3.2120 H   0  0  0  0  0  0  0  0  0  0  0
   26.0880  -11.9250   -4.9930 H   0  0  0  0  0  0  0  0  0  0  0
   27.0520  -10.1080   -2.7420 H   0  0  0  0  0  0  0  0  0  0  0
   27.3800   -9.9080   -4.4780 H   0  0  0  0  0  0  0  0  0  0  0
   25.0270   -9.5580   -4.9590 H   0  0  0  0  0  0  0  0  0  0  0
   25.5890   -8.4080   -3.7320 H   0  0  0  0  0  0  0  0  0  0  0
   29.0670  -11.0740   -3.8340 H   0  0  0  0  0  0  0  0  0  0  0
   28.7090  -11.8980   -5.3680 H   0  0  0  0  0  0  0  0  0  0  0
   30.9380  -12.4750   -4.5300 H   0  0  0  0  0  0  0  0  0  0  0
   30.2560  -13.0020   -2.9770 H   0  0  0  0  0  0  0  0  0  0  0
   28.8190  -14.9520   -2.8950 H   0  0  0  0  0  0  0  0  0  0  0
   28.4740  -15.8550   -4.3860 H   0  0  0  0  0  0  0  0  0  0  0
   27.2450  -13.9400   -5.3060 H   0  0  0  0  0  0  0  0  0  0  0
   26.5800  -14.4640   -3.7490 H   0  0  0  0  0  0  0  0  0  0  0
   22.4440   -5.5890   -3.7410 H   0  0  0  0  0  0  0  0  0  0  0
   30.8480  -16.1050   -4.8340 H   0  0  0  0  0  0  0  0  0  0  0
   31.8920  -14.6730   -4.8740 H   0  0  0  0  0  0  0  0  0  0  0
   31.2140  -15.2320   -3.3280 H   0  0  0  0  0  0  0  0  0  0  0
   21.7700   -3.2110   -3.6490 H   0  0  0  0  0  0  0  0  0  0  0
   20.4820   -4.2720   -3.0380 H   0  0  0  0  0  0  0  0  0  0  0
   21.4910   -3.3550   -1.8970 H   0  0  0  0  0  0  0  0  0  0  0
   24.1530   -3.8030   -3.3040 H   0  0  0  0  0  0  0  0  0  0  0
   23.9260   -4.0360   -1.5560 H   0  0  0  0  0  0  0  0  0  0  0
   24.6070   -5.3440   -2.5500 H   0  0  0  0  0  0  0  0  0  0  0
  1  2  2  0  0  0  0
  2  3  2  0  0  0  0
  2  4  1  0  0  0  0
  2 17  1  0  0  0  0
  4  5  2  0  0  0  0
  4  9  1  0  0  0  0
  5  6  1  0  0  0  0
  5 45  1  0  0  0  0
  6  7  2  0  0  0  0
  6 46  1  0  0  0  0
  7  8  1  0  0  0  0
  7 47  1  0  0  0  0
  8  9  2  0  0  0  0
  8 48  1  0  0  0  0
  9 10  1  0  0  0  0
 10 11  1  0  0  0  0
 10 49  1  0  0  0  0
 11 12  2  0  0  0  0
 11 16  1  0  0  0  0
 12 13  1  0  0  0  0
 13 14  2  0  0  0  0
 13 21  1  0  0  0  0
 14 15  1  0  0  0  0
 15 16  2  0  0  0  0
 15 50  1  0  0  0  0
 16 20  1  0  0  0  0
 17 18  1  0  0  0  0
 17 19  1  0  0  0  0
 17 51  1  0  0  0  0
 18 52  1  0  0  0  0
 18 53  1  0  0  0  0
 18 54  1  0  0  0  0
 19 55  1  0  0  0  0
 19 56  1  0  0  0  0
 19 57  1  0  0  0  0
 21 22  1  0  0  0  0
 21 58  1  0  0  0  0
 22 23  2  0  0  0  0
 22 27  1  0  0  0  0
 23 24  1  0  0  0  0
 23 40  1  0  0  0  0
 24 25  2  0  0  0  0
 24 59  1  0  0  0  0
 25 26  1  0  0  0  0
 25 28  1  0  0  0  0
 26 27  2  0  0  0  0
 26 60  1  0  0  0  0
 27 61  1  0  0  0  0
 28 29  1  0  0  0  0
 28 33  1  0  0  0  0
 29 30  1  0  0  0  0
 29 62  1  0  0  0  0
 29 63  1  0  0  0  0
 30 31  1  0  0  0  0
 30 64  1  0  0  0  0
 30 65  1  0  0  0  0
 31 32  1  0  0  0  0
 31 34  1  0  0  0  0
 31 66  1  0  0  0  0
 32 33  1  0  0  0  0
 32 67  1  0  0  0  0
 32 68  1  0  0  0  0
 33 69  1  0  0  0  0
 33 70  1  0  0  0  0
 34 35  1  0  0  0  0
 34 39  1  0  0  0  0
 35 36  1  0  0  0  0
 35 71  1  0  0  0  0
 35 72  1  0  0  0  0
 36 37  1  0  0  0  0
 36 73  1  0  0  0  0
 36 74  1  0  0  0  0
 37 38  1  0  0  0  0
 37 42  1  0  0  0  0
 38 39  1  0  0  0  0
 38 75  1  0  0  0  0
 38 76  1  0  0  0  0
 39 77  1  0  0  0  0
 39 78  1  0  0  0  0
 40 41  1  0  0  0  0
 41 43  1  0  0  0  0
 41 44  1  0  0  0  0
 41 79  1  0  0  0  0
 42 80  1  0  0  0  0
 42 81  1  0  0  0  0
 42 82  1  0  0  0  0
 43 83  1  0  0  0  0
 43 84  1  0  0  0  0
 43 85  1  0  0  0  0
 44 86  1  0  0  0  0
 44 87  1  0  0  0  0
 44 88  1  0  0  0  0
M  END
> <From>
www.bindingDB.org

> <BindingDB Reactant_set_id>
51069471

> <Ligand InChI>
InChI=1S/C32H44ClN7O3S/c1-22(2)43-29-20-25(39-14-12-24(13-15-39)40-18-16-38(5)17-19-40)10-11-27(29)36-32-34-21-26(33)31(37-32)35-28-8-6-7-9-30(28)44(41,42)23(3)4/h6-11,20-24H,12-19H2,1-5H3,(H2,34,35,36,37)

> <Ligand InChI Key>
PIBITIKJRIGPID-UHFFFAOYSA-N

> <BindingDB MonomerID>
50436857

> <BindingDB Ligand Name>
CHEMBL2403844

> <Target Name Assigned by Curator or DataSource>
ALK tyrosine kinase receptor

> <Target Source Organism According to Curator or DataSource>
Homo sapiens

> <Ki (nM)>


> <IC50 (nM)>
 25

> <Kd (nM)>


> <EC50 (nM)>


> <kon (M-1-s-1)>


> <koff (s-1)>


> <pH>


> <Temp C>


> <Curation/DataSource>
ChEMBL

> <Article DOI>
10.1021/jm400402q

> <PMID>
23742252

> <PubChem AID>


> <Patent Number>


> <Authors>
Marsilje, TH; Pei, W; Chen, B; Lu, W; Uno, T; Jin, Y; Jiang, T; Kim, S; Li, N; Warmuth, M; Sarkisova, Y; Sun, F; Steffy, A; Pferdekamper, AC; Li, AG; Joseph, SB; Kim, Y; Liu, B; Tuntland, T; Cui, X; Gray, NS; Steensma, R; Wan, Y; Jiang, J; Chopiuk, G; Li, J; Gordon, WP; Richmond, W; Johnson, K; Chang, J; Groessl, T; He, YQ; Phimister, A; Aycinena, A; Lee, CC; Bursulaya, B; Karanewsky, DS; Seidel, HM; Harris, JL; Michellys, PY

> <Institution>
Genomics Institute of the Novartis Research Foundation 

> <Link to Ligand in BindingDB>
http://www.bindingdb.org/bind/chemsearch/marvin/MolStructure.jsp?monomerid=50436857

> <Link to Ligand-Target Pair in BindingDB>
http://www.bindingdb.org/jsp/dbsearch/PrimarySearch_ki.jsp?energyterm=kJ/mole&tag=pol&polymerid=5809&target=ALK+tyrosine+kinase+receptor&column=ki&startPg=0&Increment=50&submit=Search

> <Link to Ligand-Target Pair in BindingDB>
http://www.bindingdb.org/jsp/dbsearch/PrimarySearch_ki.jsp?energyterm=kJ/mole&tag=r21&monomerid=50436857&enzyme=ALK+tyrosine+kinase+receptor&column=ki&startPg=0&Increment=50&submit=Search

> <Ligand HET ID in PDB>


> <PDB ID(s) for Ligand-Target Complex>


> <PubChem CID>
59737752

> <PubChem SID>
175449174

> <ChEBI ID of Ligand>


> <ChEMBL ID of Ligand>
CHEMBL2403844

> <DrugBank ID of Ligand>


> <IUPHAR_GRAC ID of Ligand>


> <KEGG ID of Ligand>


> <ZINC ID of Ligand>
ZINC96272779

> <Number of Protein Chains in Target (>1 implies a multichain complex)>
1

> <BindingDB Target Chain Sequence>
MGAIGLLWLLPLLLSTAAVGSGMGTGQRAGSPAAGPPLQPREPLSYSRLQRKSLAVDFVVPSLFRVYARDLLLPPSSSELKAGRPEARGSLALDCAPLLRLLGPAPGVSWTAGSPAPAEARTLSRVLKGGSVRKLRRAKQLVLELGEEAILEGCVGPPGEAAVGLLQFNLSELFSWWIRQGEGRLRIRLMPEKKASEVGREGRLSAAIRASQPRLLFQIFGTGHSSLESPTNMPSPSPDYFTWNLTWIMKDSFPFLSHRSRYGLECSFDFPCELEYSPPLHDLRNQSWSWRRIPSEEASQMDLLDGPGAERSKEMPRGSFLLLNTSADSKHTILSPWMRSSSEHCTLAVSVHRHLQPSGRYIAQLLPHNEAAREILLMPTPGKHGWTVLQGRIGRPDNPFRVALEYISSGNRSLSAVDFFALKNCSEGTSPGSKMALQSSFTCWNGTVLQLGQACDFHQDCAQGEDESQMCRKLPVGFYCNFEDGFCGWTQGTLSPHTPQWQVRTLKDARFQDHQDHALLLSTTDVPASESATVTSATFPAPIKSSPCELRMSWLIRGVLRGNVSLVLVENKTGKEQGRMVWHVAAYEGLSLWQWMVLPLLDVSDRFWLQMVAWWGQGSRAIVAFDNISISLDCYLTISGEDKILQNTAPKSRNLFERNPNKELKPGENSPRQTPIFDPTVHWLFTTCGASGPHGPTQAQCNNAYQNSNLSVEVGSEGPLKGIQIWKVPATDTYSISGYGAAGGKGGKNTMMRSHGVSVLGIFNLEKDDMLYILVGQQGEDACPSTNQLIQKVCIGENNVIEEEIRVNRSVHEWAGGGGGGGGATYVFKMKDGVPVPLIIAAGGGGRAYGAKTDTFHPERLENNSSVLGLNGNSGAAGGGGGWNDNTSLLWAGKSLQEGATGGHSCPQAMKKWGWETRGGFGGGGGGCSSGGGGGGYIGGNAASNNDPEMDGEDGVSFISPLGILYTPALKVMEGHGEVNIKHYLNCSHCEVDECHMDPESHKVICFCDHGTVLAEDGVSCIVSPTPEPHLPLSLILSVVTSALVAALVLAFSGIMIVYRRKHQELQAMQMELQSPEYKLSKLRTSTIMTDYNPNYCFAGKTSSISDLKEVPRKNITLIRGLGHGAFGEVYEGQVSGMPNDPSPLQVAVKTLPEVCSEQDELDFLMEALIISKFNHQNIVRCIGVSLQSLPRFILLELMAGGDLKSFLRETRPRPSQPSSLAMLDLLHVARDIACGCQYLEENHFIHRDIAARNCLLTCPGPGRVAKIGDFGMARDIYRASYYRKGGCAMLPVKWMPPEAFMEGIFTSKTDTWSFGVLLWEIFSLGYMPYPSKSNQEVLEFVTSGGRMDPPKNCPGPVYRIMTQCWQHQPEDRPNFAIILERIEYCTQDPDVINTALPIEYGPLVEEEEKVPVRPKDPEGVPPLLVSQQAKREEERSPAAPPPLPTTSSGKAAKKPTAAEISVRVPRGPAVEGGHVNMAFSQSNPPSELHKVHGSRNKPTSLWNPTYGSWFTEKPTKKNNPIAKKEPHDRGNLGLEGSCTVPPNVATGRLPGASLLLEPSSLTANMKEVPLFRLRHFPCGNVNYGYQQQGLPLEAATAPGAGHYEDTILKSKNSMNQPGP

> <PDB ID(s) of Target Chain>
2XB7,2XBA,3AOX,5FTO,5FTQ,6E0R,6EBW,6EDL,6MX8

> <UniProt (SwissProt) Recommended Name of Target Chain>
ALK tyrosine kinase receptor

> <UniProt (SwissProt) Entry Name of Target Chain>
ALK_HUMAN

> <UniProt (SwissProt) Primary ID of Target Chain>
Q9UM73

> <UniProt (SwissProt) Secondary ID(s) of Target Chain>
Q4ZFX9,Q53QQ6,Q53RZ4,Q59FI3,Q9Y4K6

> <UniProt (SwissProt) Alternative ID(s) of Target Chain>


> <UniProt (TrEMBL) Submitted Name of Target Chain>


> <UniProt (TrEMBL) Entry Name of Target Chain>


> <UniProt (TrEMBL) Primary ID of Target Chain>


> <UniProt (TrEMBL) Secondary ID(s) of Target Chain>


> <UniProt (TrEMBL) Alternative ID(s) of Target Chain>


$$$$
BindingDB_50436858_mol_1

Vconf v2.0 Academic SN VC001-00000579
 75 79  0  0  0  0  0  0  0  0999 V2000
   11.2050  -17.8340   -0.3540 O   0  0  0  0  0  0  0  0  0  0  0
   11.7550  -18.9440   -1.3500 S   0  0  0  0  0  0  0  0  0  0  0
   10.8170  -20.1650   -1.7530 O   0  0  0  0  0  0  0  0  0  0  0
   13.2970  -19.5780   -0.8380 C   0  0  0  0  0  0  0  0  0  0  0
   13.6000  -20.9040   -1.2070 C   0  0  0  0  0  0  0  0  0  0  0
   14.8220  -21.4870   -0.8460 C   0  0  0  0  0  0  0  0  0  0  0
   15.7520  -20.7460   -0.1060 C   0  0  0  0  0  0  0  0  0  0  0
   15.4590  -19.4240    0.2620 C   0  0  0  0  0  0  0  0  0  0  0
   14.2360  -18.8090   -0.1040 C   0  0  0  0  0  0  0  0  0  0  0
   13.8880  -17.5180    0.2010 N   0  0  0  0  0  0  0  0  0  0  0
   14.6050  -16.5180    0.7960 C   0  0  0  0  0  0  0  0  0  0  0
   15.9090  -16.6700    1.1340 N   0  0  0  0  0  0  0  0  0  0  0
   16.6570  -15.6980    1.7100 C   0  0  0  0  0  0  0  0  0  0  0
   16.0750  -14.5070    1.9680 N   0  0  0  0  0  0  0  0  0  0  0
   14.7780  -14.2710    1.6590 C   0  0  0  0  0  0  0  0  0  0  0
   13.9960  -15.2700    1.0540 C   0  0  0  0  0  0  0  0  0  0  0
   12.0070  -18.1090   -2.9340 C   0  0  0  0  0  0  0  0  0  0  0
   10.6580  -17.5820   -3.4440 C   0  0  0  0  0  0  0  0  0  0  0
   13.0040  -16.9470   -2.8110 C   0  0  0  0  0  0  0  0  0  0  0
   12.3790  -14.9270    0.6770 Cl  0  0  0  0  0  0  0  0  0  0  0
   17.9570  -15.8780    2.0380 N   0  0  0  0  0  0  0  0  0  0  0
   18.6380  -17.0280    1.8230 C   0  0  0  0  0  0  0  0  0  0  0
   18.3850  -18.2070    2.5580 C   0  0  0  0  0  0  0  0  0  0  0
   19.0950  -19.3780    2.2470 C   0  0  0  0  0  0  0  0  0  0  0
   20.0810  -19.4010    1.2390 C   0  0  0  0  0  0  0  0  0  0  0
   20.3450  -18.2090    0.5170 C   0  0  0  0  0  0  0  0  0  0  0
   19.6220  -17.0370    0.8190 C   0  0  0  0  0  0  0  0  0  0  0
   17.4620  -18.2970    3.5570 O   0  0  0  0  0  0  0  0  0  0  0
   17.4700  -17.3760    4.6510 C   0  0  0  0  0  0  0  0  0  0  0
   20.8130  -20.6700    0.9730 C   0  0  0  0  0  0  0  0  0  0  0
   21.5990  -21.1490    2.2120 C   0  0  0  0  0  0  0  0  0  0  0
   22.3420  -22.4520    1.8850 C   0  0  0  0  0  0  0  0  0  0  0
   21.3900  -23.4910    1.4640 N   0  0  0  0  0  0  0  0  0  0  0
   20.6800  -23.0770    0.2440 C   0  0  0  0  0  0  0  0  0  0  0
   19.8700  -21.7960    0.5020 C   0  0  0  0  0  0  0  0  0  0  0
   21.3580  -18.1640   -0.5540 C   0  0  0  0  0  0  0  0  0  0  0
   16.7050  -17.8940    5.8730 C   0  0  0  0  0  0  0  0  0  0  0
   17.9420  -17.6790    6.7480 C   0  0  0  0  0  0  0  0  0  0  0
   18.7410  -17.2820    5.5050 C   0  0  0  0  0  0  0  0  0  0  0
   12.9270  -21.4490   -1.7450 H   0  0  0  0  0  0  0  0  0  0  0
   15.0320  -22.4480   -1.1160 H   0  0  0  0  0  0  0  0  0  0  0
   16.6390  -21.1680    0.1690 H   0  0  0  0  0  0  0  0  0  0  0
   16.1550  -18.9290    0.8100 H   0  0  0  0  0  0  0  0  0  0  0
   12.9910  -17.2630   -0.0550 H   0  0  0  0  0  0  0  0  0  0  0
   14.3770  -13.3570    1.8730 H   0  0  0  0  0  0  0  0  0  0  0
   12.3960  -18.8310   -3.6530 H   0  0  0  0  0  0  0  0  0  0  0
   10.7930  -17.0880   -4.4070 H   0  0  0  0  0  0  0  0  0  0  0
    9.9650  -18.4150   -3.5620 H   0  0  0  0  0  0  0  0  0  0  0
   10.2470  -16.8720   -2.7260 H   0  0  0  0  0  0  0  0  0  0  0
   13.0810  -16.4260   -3.7660 H   0  0  0  0  0  0  0  0  0  0  0
   12.6620  -16.2480   -2.0480 H   0  0  0  0  0  0  0  0  0  0  0
   13.9870  -17.3300   -2.5390 H   0  0  0  0  0  0  0  0  0  0  0
   18.4370  -15.1250    2.4150 H   0  0  0  0  0  0  0  0  0  0  0
   18.8950  -20.2270    2.7770 H   0  0  0  0  0  0  0  0  0  0  0
   19.8050  -16.1820    0.2920 H   0  0  0  0  0  0  0  0  0  0  0
   17.0820  -16.4100    4.3300 H   0  0  0  0  0  0  0  0  0  0  0
   21.5440  -20.5230    0.1790 H   0  0  0  0  0  0  0  0  0  0  0
   20.9200  -21.3360    3.0460 H   0  0  0  0  0  0  0  0  0  0  0
   22.3240  -20.3890    2.5060 H   0  0  0  0  0  0  0  0  0  0  0
   23.0710  -22.2720    1.0940 H   0  0  0  0  0  0  0  0  0  0  0
   22.8680  -22.7950    2.7770 H   0  0  0  0  0  0  0  0  0  0  0
   21.9390  -24.3190    1.2240 H   0  0  0  0  0  0  0  0  0  0  0
   21.3950  -22.9040   -0.5610 H   0  0  0  0  0  0  0  0  0  0  0
   19.9980  -23.8740   -0.0550 H   0  0  0  0  0  0  0  0  0  0  0
   19.1160  -22.0060    1.2610 H   0  0  0  0  0  0  0  0  0  0  0
   19.3730  -21.4980   -0.4220 H   0  0  0  0  0  0  0  0  0  0  0
   21.4240  -17.1710   -1.0030 H   0  0  0  0  0  0  0  0  0  0  0
   22.3350  -18.4230   -0.1460 H   0  0  0  0  0  0  0  0  0  0  0
   21.0930  -18.8780   -1.3360 H   0  0  0  0  0  0  0  0  0  0  0
   15.8310  -17.3060    6.1540 H   0  0  0  0  0  0  0  0  0  0  0
   16.3870  -18.9350    5.7970 H   0  0  0  0  0  0  0  0  0  0  0
   17.8390  -16.8820    7.4840 H   0  0  0  0  0  0  0  0  0  0  0
   18.3010  -18.5680    7.2680 H   0  0  0  0  0  0  0  0  0  0  0
   19.5270  -17.9880    5.2350 H   0  0  0  0  0  0  0  0  0  0  0
   19.1910  -16.2900    5.5430 H   0  0  0  0  0  0  0  0  0  0  0
  1  2  2  0  0  0  0
  2  3  2  0  0  0  0
  2  4  1  0  0  0  0
  2 17  1  0  0  0  0
  4  5  2  0  0  0  0
  4  9  1  0  0  0  0
  5  6  1  0  0  0  0
  5 40  1  0  0  0  0
  6  7  2  0  0  0  0
  6 41  1  0  0  0  0
  7  8  1  0  0  0  0
  7 42  1  0  0  0  0
  8  9  2  0  0  0  0
  8 43  1  0  0  0  0
  9 10  1  0  0  0  0
 10 11  1  0  0  0  0
 10 44  1  0  0  0  0
 11 12  2  0  0  0  0
 11 16  1  0  0  0  0
 12 13  1  0  0  0  0
 13 14  2  0  0  0  0
 13 21  1  0  0  0  0
 14 15  1  0  0  0  0
 15 16  2  0  0  0  0
 15 45  1  0  0  0  0
 16 20  1  0  0  0  0
 17 18  1  0  0  0  0
 17 19  1  0  0  0  0
 17 46  1  0  0  0  0
 18 47  1  0  0  0  0
 18 48  1  0  0  0  0
 18 49  1  0  0  0  0
 19 50  1  0  0  0  0
 19 51  1  0  0  0  0
 19 52  1  0  0  0  0
 21 22  1  0  0  0  0
 21 53  1  0  0  0  0
 22 23  2  0  0  0  0
 22 27  1  0  0  0  0
 23 24  1  0  0  0  0
 23 28  1  0  0  0  0
 24 25  2  0  0  0  0
 24 54  1  0  0  0  0
 25 26  1  0  0  0  0
 25 30  1  0  0  0  0
 26 27  2  0  0  0  0
 26 36  1  0  0  0  0
 27 55  1  0  0  0  0
 28 29  1  0  0  0  0
 29 37  1  0  0  0  0
 29 39  1  0  0  0  0
 29 56  1  0  0  0  0
 30 31  1  0  0  0  0
 30 35  1  0  0  0  0
 30 57  1  0  0  0  0
 31 32  1  0  0  0  0
 31 58  1  0  0  0  0
 31 59  1  0  0  0  0
 32 33  1  0  0  0  0
 32 60  1  0  0  0  0
 32 61  1  0  0  0  0
 33 34  1  0  0  0  0
 33 62  1  0  0  0  0
 34 35  1  0  0  0  0
 34 63  1  0  0  0  0
 34 64  1  0  0  0  0
 35 65  1  0  0  0  0
 35 66  1  0  0  0  0
 36 67  1  0  0  0  0
 36 68  1  0  0  0  0
 36 69  1  0  0  0  0
 37 38  1  0  0  0  0
 37 70  1  0  0  0  0
 37 71  1  0  0  0  0
 38 39  1  0  0  0  0
 38 72  1  0  0  0  0
 38 73  1  0  0  0  0
 39 74  1  0  0  0  0
 39 75  1  0  0  0  0
M  END
> <From>
www.bindingDB.org

> <BindingDB Reactant_set_id>
51069472

> <Ligand InChI>
InChI=1S/C29H36ClN5O3S/c1-18(2)39(36,37)27-10-5-4-9-24(27)33-28-23(30)17-32-29(35-28)34-25-15-19(3)22(20-11-13-31-14-12-20)16-26(25)38-21-7-6-8-21/h4-5,9-10,15-18,20-21,31H,6-8,11-14H2,1-3H3,(H2,32,33,34,35)

> <Ligand InChI Key>
KZXIZEAAKHQALQ-UHFFFAOYSA-N

> <BindingDB MonomerID>
50436858

> <BindingDB Ligand Name>
CHEMBL2403848

> <Target Name Assigned by Curator or DataSource>
ALK tyrosine kinase receptor

> <Target Source Organism According to Curator or DataSource>
Homo sapiens

> <Ki (nM)>


> <IC50 (nM)>
 17

> <Kd (nM)>


> <EC50 (nM)>


> <kon (M-1-s-1)>


> <koff (s-1)>


> <pH>


> <Temp C>


> <Curation/DataSource>
ChEMBL

> <Article DOI>
10.1021/jm400402q

> <PMID>
23742252

> <PubChem AID>


> <Patent Number>


> <Authors>
Marsilje, TH; Pei, W; Chen, B; Lu, W; Uno, T; Jin, Y; Jiang, T; Kim, S; Li, N; Warmuth, M; Sarkisova, Y; Sun, F; Steffy, A; Pferdekamper, AC; Li, AG; Joseph, SB; Kim, Y; Liu, B; Tuntland, T; Cui, X; Gray, NS; Steensma, R; Wan, Y; Jiang, J; Chopiuk, G; Li, J; Gordon, WP; Richmond, W; Johnson, K; Chang, J; Groessl, T; He, YQ; Phimister, A; Aycinena, A; Lee, CC; Bursulaya, B; Karanewsky, DS; Seidel, HM; Harris, JL; Michellys, PY

> <Institution>
Genomics Institute of the Novartis Research Foundation 

> <Link to Ligand in BindingDB>
http://www.bindingdb.org/bind/chemsearch/marvin/MolStructure.jsp?monomerid=50436858

> <Link to Ligand-Target Pair in BindingDB>
http://www.bindingdb.org/jsp/dbsearch/PrimarySearch_ki.jsp?energyterm=kJ/mole&tag=pol&polymerid=5809&target=ALK+tyrosine+kinase+receptor&column=ki&startPg=0&Increment=50&submit=Search

> <Link to Ligand-Target Pair in BindingDB>
http://www.bindingdb.org/jsp/dbsearch/PrimarySearch_ki.jsp?energyterm=kJ/mole&tag=r21&monomerid=50436858&enzyme=ALK+tyrosine+kinase+receptor&column=ki&startPg=0&Increment=50&submit=Search

> <Ligand HET ID in PDB>


> <PDB ID(s) for Ligand-Target Complex>


> <PubChem CID>
59764433

> <PubChem SID>
175449175

> <ChEBI ID of Ligand>


> <ChEMBL ID of Ligand>
CHEMBL2403848

> <DrugBank ID of Ligand>


> <IUPHAR_GRAC ID of Ligand>


> <KEGG ID of Ligand>


> <ZINC ID of Ligand>
ZINC96272780

> <Number of Protein Chains in Target (>1 implies a multichain complex)>
1

> <BindingDB Target Chain Sequence>
MGAIGLLWLLPLLLSTAAVGSGMGTGQRAGSPAAGPPLQPREPLSYSRLQRKSLAVDFVVPSLFRVYARDLLLPPSSSELKAGRPEARGSLALDCAPLLRLLGPAPGVSWTAGSPAPAEARTLSRVLKGGSVRKLRRAKQLVLELGEEAILEGCVGPPGEAAVGLLQFNLSELFSWWIRQGEGRLRIRLMPEKKASEVGREGRLSAAIRASQPRLLFQIFGTGHSSLESPTNMPSPSPDYFTWNLTWIMKDSFPFLSHRSRYGLECSFDFPCELEYSPPLHDLRNQSWSWRRIPSEEASQMDLLDGPGAERSKEMPRGSFLLLNTSADSKHTILSPWMRSSSEHCTLAVSVHRHLQPSGRYIAQLLPHNEAAREILLMPTPGKHGWTVLQGRIGRPDNPFRVALEYISSGNRSLSAVDFFALKNCSEGTSPGSKMALQSSFTCWNGTVLQLGQACDFHQDCAQGEDESQMCRKLPVGFYCNFEDGFCGWTQGTLSPHTPQWQVRTLKDARFQDHQDHALLLSTTDVPASESATVTSATFPAPIKSSPCELRMSWLIRGVLRGNVSLVLVENKTGKEQGRMVWHVAAYEGLSLWQWMVLPLLDVSDRFWLQMVAWWGQGSRAIVAFDNISISLDCYLTISGEDKILQNTAPKSRNLFERNPNKELKPGENSPRQTPIFDPTVHWLFTTCGASGPHGPTQAQCNNAYQNSNLSVEVGSEGPLKGIQIWKVPATDTYSISGYGAAGGKGGKNTMMRSHGVSVLGIFNLEKDDMLYILVGQQGEDACPSTNQLIQKVCIGENNVIEEEIRVNRSVHEWAGGGGGGGGATYVFKMKDGVPVPLIIAAGGGGRAYGAKTDTFHPERLENNSSVLGLNGNSGAAGGGGGWNDNTSLLWAGKSLQEGATGGHSCPQAMKKWGWETRGGFGGGGGGCSSGGGGGGYIGGNAASNNDPEMDGEDGVSFISPLGILYTPALKVMEGHGEVNIKHYLNCSHCEVDECHMDPESHKVICFCDHGTVLAEDGVSCIVSPTPEPHLPLSLILSVVTSALVAALVLAFSGIMIVYRRKHQELQAMQMELQSPEYKLSKLRTSTIMTDYNPNYCFAGKTSSISDLKEVPRKNITLIRGLGHGAFGEVYEGQVSGMPNDPSPLQVAVKTLPEVCSEQDELDFLMEALIISKFNHQNIVRCIGVSLQSLPRFILLELMAGGDLKSFLRETRPRPSQPSSLAMLDLLHVARDIACGCQYLEENHFIHRDIAARNCLLTCPGPGRVAKIGDFGMARDIYRASYYRKGGCAMLPVKWMPPEAFMEGIFTSKTDTWSFGVLLWEIFSLGYMPYPSKSNQEVLEFVTSGGRMDPPKNCPGPVYRIMTQCWQHQPEDRPNFAIILERIEYCTQDPDVINTALPIEYGPLVEEEEKVPVRPKDPEGVPPLLVSQQAKREEERSPAAPPPLPTTSSGKAAKKPTAAEISVRVPRGPAVEGGHVNMAFSQSNPPSELHKVHGSRNKPTSLWNPTYGSWFTEKPTKKNNPIAKKEPHDRGNLGLEGSCTVPPNVATGRLPGASLLLEPSSLTANMKEVPLFRLRHFPCGNVNYGYQQQGLPLEAATAPGAGHYEDTILKSKNSMNQPGP

> <PDB ID(s) of Target Chain>
2XB7,2XBA,3AOX,5FTO,5FTQ,6E0R,6EBW,6EDL,6MX8

> <UniProt (SwissProt) Recommended Name of Target Chain>
ALK tyrosine kinase receptor

> <UniProt (SwissProt) Entry Name of Target Chain>
ALK_HUMAN

> <UniProt (SwissProt) Primary ID of Target Chain>
Q9UM73

> <UniProt (SwissProt) Secondary ID(s) of Target Chain>
Q4ZFX9,Q53QQ6,Q53RZ4,Q59FI3,Q9Y4K6

> <UniProt (SwissProt) Alternative ID(s) of Target Chain>


> <UniProt (TrEMBL) Submitted Name of Target Chain>


> <UniProt (TrEMBL) Entry Name of Target Chain>


> <UniProt (TrEMBL) Primary ID of Target Chain>


> <UniProt (TrEMBL) Secondary ID(s) of Target Chain>


> <UniProt (TrEMBL) Alternative ID(s) of Target Chain>


$$$$
BindingDB_50436859_mol_1

Vconf v2.0 Academic SN VC001-00000579
 81 84  0  0  0  0  0  0  0  0999 V2000
   29.2610   -0.2570   -1.3630 O   0  0  0  0  0  0  0  0  0  0  0
   27.8390   -0.3300   -0.6600 S   0  0  0  0  0  0  0  0  0  0  0
   27.6710    0.3100    0.7910 O   0  0  0  0  0  0  0  0  0  0  0
   27.2990   -1.9910   -0.6730 C   0  0  0  0  0  0  0  0  0  0  0
   27.9760   -2.8830   -1.5310 C   0  0  0  0  0  0  0  0  0  0  0
   27.5720   -4.2210   -1.6390 C   0  0  0  0  0  0  0  0  0  0  0
   26.4890   -4.6810   -0.8780 C   0  0  0  0  0  0  0  0  0  0  0
   25.8150   -3.8010   -0.0150 C   0  0  0  0  0  0  0  0  0  0  0
   26.2010   -2.4420    0.1020 C   0  0  0  0  0  0  0  0  0  0  0
   25.5940   -1.5350    0.9350 N   0  0  0  0  0  0  0  0  0  0  0
   24.4280   -1.6270    1.6440 C   0  0  0  0  0  0  0  0  0  0  0
   23.5790   -2.6730    1.4870 N   0  0  0  0  0  0  0  0  0  0  0
   22.4040   -2.7970    2.1510 C   0  0  0  0  0  0  0  0  0  0  0
   22.0560   -1.8310    3.0290 N   0  0  0  0  0  0  0  0  0  0  0
   22.8390   -0.7470    3.2350 C   0  0  0  0  0  0  0  0  0  0  0
   24.0520   -0.5990    2.5370 C   0  0  0  0  0  0  0  0  0  0  0
   26.8150    0.6790   -1.7580 C   0  0  0  0  0  0  0  0  0  0  0
   26.7490    0.0750   -3.1690 C   0  0  0  0  0  0  0  0  0  0  0
   25.3920    0.8600   -1.2130 C   0  0  0  0  0  0  0  0  0  0  0
   24.9950    0.7820    2.8120 Cl  0  0  0  0  0  0  0  0  0  0  0
   21.5580   -3.8310    1.9420 N   0  0  0  0  0  0  0  0  0  0  0
   21.7200   -4.7750    0.9820 C   0  0  0  0  0  0  0  0  0  0  0
   21.8040   -4.4290   -0.3820 C   0  0  0  0  0  0  0  0  0  0  0
   21.9560   -5.4490   -1.3400 C   0  0  0  0  0  0  0  0  0  0  0
   21.9580   -6.8120   -0.9730 C   0  0  0  0  0  0  0  0  0  0  0
   21.8200   -7.1510    0.3980 C   0  0  0  0  0  0  0  0  0  0  0
   21.7220   -6.1280    1.3620 C   0  0  0  0  0  0  0  0  0  0  0
   21.7120   -3.1060   -0.7210 O   0  0  0  0  0  0  0  0  0  0  0
   21.2940   -2.6450   -2.0110 C   0  0  0  0  0  0  0  0  0  0  0
   22.1010   -7.8400   -2.0340 C   0  0  0  0  0  0  0  0  0  0  0
   20.9710   -7.7680   -3.0830 C   0  0  0  0  0  0  0  0  0  0  0
   21.1790   -8.8670   -4.1360 C   0  0  0  0  0  0  0  0  0  0  0
   22.4870   -8.7050   -4.8060 N   0  0  0  0  0  0  0  0  0  0  0
   23.5720   -8.8340   -3.8070 C   0  0  0  0  0  0  0  0  0  0  0
   23.4600   -7.7250   -2.7530 C   0  0  0  0  0  0  0  0  0  0  0
   19.8440   -3.0720   -2.3120 C   0  0  0  0  0  0  0  0  0  0  0
   21.3890   -1.1140   -2.0140 C   0  0  0  0  0  0  0  0  0  0  0
   21.7590   -8.5560    0.8420 C   0  0  0  0  0  0  0  0  0  0  0
   22.6310   -9.7330   -5.8630 C   0  0  0  0  0  0  0  0  0  0  0
   23.7210   -9.4140   -6.7910 C   0  0  0  0  0  0  0  0  0  0  0
   24.6810  -10.2000   -6.9400 O   0  0  0  0  0  0  0  0  0  0  0
   23.6970   -8.2730   -7.4900 N   0  0  0  0  0  0  0  0  0  0  0
   28.7650   -2.5560   -2.0900 H   0  0  0  0  0  0  0  0  0  0  0
   28.0660   -4.8600   -2.2640 H   0  0  0  0  0  0  0  0  0  0  0
   26.1960   -5.6560   -0.9470 H   0  0  0  0  0  0  0  0  0  0  0
   25.0550   -4.1840    0.5420 H   0  0  0  0  0  0  0  0  0  0  0
   26.0530   -0.6870    1.0310 H   0  0  0  0  0  0  0  0  0  0  0
   22.5330   -0.0350    3.8990 H   0  0  0  0  0  0  0  0  0  0  0
   27.2800    1.6610   -1.8320 H   0  0  0  0  0  0  0  0  0  0  0
   26.1980    0.7450   -3.8270 H   0  0  0  0  0  0  0  0  0  0  0
   27.7570   -0.0570   -3.5590 H   0  0  0  0  0  0  0  0  0  0  0
   26.2450   -0.8900   -3.1390 H   0  0  0  0  0  0  0  0  0  0  0
   24.8250    1.5110   -1.8790 H   0  0  0  0  0  0  0  0  0  0  0
   24.8920   -0.1050   -1.1460 H   0  0  0  0  0  0  0  0  0  0  0
   25.4380    1.3160   -0.2250 H   0  0  0  0  0  0  0  0  0  0  0
   20.7700   -3.8880    2.5030 H   0  0  0  0  0  0  0  0  0  0  0
   22.0440   -5.1990   -2.3230 H   0  0  0  0  0  0  0  0  0  0  0
   21.6410   -6.3700    2.3510 H   0  0  0  0  0  0  0  0  0  0  0
   21.9590   -3.0270   -2.7870 H   0  0  0  0  0  0  0  0  0  0  0
   22.0580   -8.8380   -1.5980 H   0  0  0  0  0  0  0  0  0  0  0
   20.9730   -6.7980   -3.5830 H   0  0  0  0  0  0  0  0  0  0  0
   20.0060   -7.9170   -2.5960 H   0  0  0  0  0  0  0  0  0  0  0
   21.1230   -9.8440   -3.6510 H   0  0  0  0  0  0  0  0  0  0  0
   20.3760   -8.7940   -4.8710 H   0  0  0  0  0  0  0  0  0  0  0
   23.5140   -9.8060   -3.3140 H   0  0  0  0  0  0  0  0  0  0  0
   24.5450   -8.7460   -4.2930 H   0  0  0  0  0  0  0  0  0  0  0
   23.5510   -6.7570   -3.2490 H   0  0  0  0  0  0  0  0  0  0  0
   24.2700   -7.8380   -2.0300 H   0  0  0  0  0  0  0  0  0  0  0
   19.5310   -2.6590   -3.2710 H   0  0  0  0  0  0  0  0  0  0  0
   19.7760   -4.1580   -2.3590 H   0  0  0  0  0  0  0  0  0  0  0
   19.1810   -2.7080   -1.5250 H   0  0  0  0  0  0  0  0  0  0  0
   21.0830   -0.7300   -2.9880 H   0  0  0  0  0  0  0  0  0  0  0
   20.7400   -0.7010   -1.2410 H   0  0  0  0  0  0  0  0  0  0  0
   22.4190   -0.8110   -1.8180 H   0  0  0  0  0  0  0  0  0  0  0
   21.6150   -8.6250    1.9220 H   0  0  0  0  0  0  0  0  0  0  0
   20.9220   -9.0570    0.3520 H   0  0  0  0  0  0  0  0  0  0  0
   22.6890   -9.0640    0.5820 H   0  0  0  0  0  0  0  0  0  0  0
   22.8090  -10.7090   -5.4060 H   0  0  0  0  0  0  0  0  0  0  0
   21.7120   -9.7890   -6.4480 H   0  0  0  0  0  0  0  0  0  0  0
   24.4170   -8.0720   -8.1090 H   0  0  0  0  0  0  0  0  0  0  0
   22.9640   -7.6490   -7.3680 H   0  0  0  0  0  0  0  0  0  0  0
  1  2  2  0  0  0  0
  2  3  2  0  0  0  0
  2  4  1  0  0  0  0
  2 17  1  0  0  0  0
  4  5  2  0  0  0  0
  4  9  1  0  0  0  0
  5  6  1  0  0  0  0
  5 43  1  0  0  0  0
  6  7  2  0  0  0  0
  6 44  1  0  0  0  0
  7  8  1  0  0  0  0
  7 45  1  0  0  0  0
  8  9  2  0  0  0  0
  8 46  1  0  0  0  0
  9 10  1  0  0  0  0
 10 11  1  0  0  0  0
 10 47  1  0  0  0  0
 11 12  2  0  0  0  0
 11 16  1  0  0  0  0
 12 13  1  0  0  0  0
 13 14  2  0  0  0  0
 13 21  1  0  0  0  0
 14 15  1  0  0  0  0
 15 16  2  0  0  0  0
 15 48  1  0  0  0  0
 16 20  1  0  0  0  0
 17 18  1  0  0  0  0
 17 19  1  0  0  0  0
 17 49  1  0  0  0  0
 18 50  1  0  0  0  0
 18 51  1  0  0  0  0
 18 52  1  0  0  0  0
 19 53  1  0  0  0  0
 19 54  1  0  0  0  0
 19 55  1  0  0  0  0
 21 22  1  0  0  0  0
 21 56  1  0  0  0  0
 22 23  2  0  0  0  0
 22 27  1  0  0  0  0
 23 24  1  0  0  0  0
 23 28  1  0  0  0  0
 24 25  2  0  0  0  0
 24 57  1  0  0  0  0
 25 26  1  0  0  0  0
 25 30  1  0  0  0  0
 26 27  2  0  0  0  0
 26 38  1  0  0  0  0
 27 58  1  0  0  0  0
 28 29  1  0  0  0  0
 29 36  1  0  0  0  0
 29 37  1  0  0  0  0
 29 59  1  0  0  0  0
 30 31  1  0  0  0  0
 30 35  1  0  0  0  0
 30 60  1  0  0  0  0
 31 32  1  0  0  0  0
 31 61  1  0  0  0  0
 31 62  1  0  0  0  0
 32 33  1  0  0  0  0
 32 63  1  0  0  0  0
 32 64  1  0  0  0  0
 33 34  1  0  0  0  0
 33 39  1  0  0  0  0
 34 35  1  0  0  0  0
 34 65  1  0  0  0  0
 34 66  1  0  0  0  0
 35 67  1  0  0  0  0
 35 68  1  0  0  0  0
 36 69  1  0  0  0  0
 36 70  1  0  0  0  0
 36 71  1  0  0  0  0
 37 72  1  0  0  0  0
 37 73  1  0  0  0  0
 37 74  1  0  0  0  0
 38 75  1  0  0  0  0
 38 76  1  0  0  0  0
 38 77  1  0  0  0  0
 39 40  1  0  0  0  0
 39 78  1  0  0  0  0
 39 79  1  0  0  0  0
 40 41  2  0  0  0  0
 40 42  1  0  0  0  0
 42 80  1  0  0  0  0
 42 81  1  0  0  0  0
M  END
> <From>
www.bindingDB.org

> <BindingDB Reactant_set_id>
51069473

> <Ligand InChI>
InChI=1S/C30H39ClN6O4S/c1-18(2)41-26-15-22(21-10-12-37(13-11-21)17-28(32)38)20(5)14-25(26)35-30-33-16-23(31)29(36-30)34-24-8-6-7-9-27(24)42(39,40)19(3)4/h6-9,14-16,18-19,21H,10-13,17H2,1-5H3,(H2,32,38)(H2,33,34,35,36)

> <Ligand InChI Key>
LMBKLNFIUZRASR-UHFFFAOYSA-N

> <BindingDB MonomerID>
50436859

> <BindingDB Ligand Name>
CHEMBL2403841

> <Target Name Assigned by Curator or DataSource>
ALK tyrosine kinase receptor

> <Target Source Organism According to Curator or DataSource>
Homo sapiens

> <Ki (nM)>


> <IC50 (nM)>
 17

> <Kd (nM)>


> <EC50 (nM)>


> <kon (M-1-s-1)>


> <koff (s-1)>


> <pH>


> <Temp C>


> <Curation/DataSource>
ChEMBL

> <Article DOI>
10.1021/jm400402q

> <PMID>
23742252

> <PubChem AID>


> <Patent Number>


> <Authors>
Marsilje, TH; Pei, W; Chen, B; Lu, W; Uno, T; Jin, Y; Jiang, T; Kim, S; Li, N; Warmuth, M; Sarkisova, Y; Sun, F; Steffy, A; Pferdekamper, AC; Li, AG; Joseph, SB; Kim, Y; Liu, B; Tuntland, T; Cui, X; Gray, NS; Steensma, R; Wan, Y; Jiang, J; Chopiuk, G; Li, J; Gordon, WP; Richmond, W; Johnson, K; Chang, J; Groessl, T; He, YQ; Phimister, A; Aycinena, A; Lee, CC; Bursulaya, B; Karanewsky, DS; Seidel, HM; Harris, JL; Michellys, PY

> <Institution>
Genomics Institute of the Novartis Research Foundation 

> <Link to Ligand in BindingDB>
http://www.bindingdb.org/bind/chemsearch/marvin/MolStructure.jsp?monomerid=50436859

> <Link to Ligand-Target Pair in BindingDB>
http://www.bindingdb.org/jsp/dbsearch/PrimarySearch_ki.jsp?energyterm=kJ/mole&tag=pol&polymerid=5809&target=ALK+tyrosine+kinase+receptor&column=ki&startPg=0&Increment=50&submit=Search

> <Link to Ligand-Target Pair in BindingDB>
http://www.bindingdb.org/jsp/dbsearch/PrimarySearch_ki.jsp?energyterm=kJ/mole&tag=r21&monomerid=50436859&enzyme=ALK+tyrosine+kinase+receptor&column=ki&startPg=0&Increment=50&submit=Search

> <Ligand HET ID in PDB>


> <PDB ID(s) for Ligand-Target Complex>


> <PubChem CID>
71764395

> <PubChem SID>
175449176

> <ChEBI ID of Ligand>


> <ChEMBL ID of Ligand>
CHEMBL2403841

> <DrugBank ID of Ligand>


> <IUPHAR_GRAC ID of Ligand>


> <KEGG ID of Ligand>


> <ZINC ID of Ligand>
ZINC96272781

> <Number of Protein Chains in Target (>1 implies a multichain complex)>
1

> <BindingDB Target Chain Sequence>
MGAIGLLWLLPLLLSTAAVGSGMGTGQRAGSPAAGPPLQPREPLSYSRLQRKSLAVDFVVPSLFRVYARDLLLPPSSSELKAGRPEARGSLALDCAPLLRLLGPAPGVSWTAGSPAPAEARTLSRVLKGGSVRKLRRAKQLVLELGEEAILEGCVGPPGEAAVGLLQFNLSELFSWWIRQGEGRLRIRLMPEKKASEVGREGRLSAAIRASQPRLLFQIFGTGHSSLESPTNMPSPSPDYFTWNLTWIMKDSFPFLSHRSRYGLECSFDFPCELEYSPPLHDLRNQSWSWRRIPSEEASQMDLLDGPGAERSKEMPRGSFLLLNTSADSKHTILSPWMRSSSEHCTLAVSVHRHLQPSGRYIAQLLPHNEAAREILLMPTPGKHGWTVLQGRIGRPDNPFRVALEYISSGNRSLSAVDFFALKNCSEGTSPGSKMALQSSFTCWNGTVLQLGQACDFHQDCAQGEDESQMCRKLPVGFYCNFEDGFCGWTQGTLSPHTPQWQVRTLKDARFQDHQDHALLLSTTDVPASESATVTSATFPAPIKSSPCELRMSWLIRGVLRGNVSLVLVENKTGKEQGRMVWHVAAYEGLSLWQWMVLPLLDVSDRFWLQMVAWWGQGSRAIVAFDNISISLDCYLTISGEDKILQNTAPKSRNLFERNPNKELKPGENSPRQTPIFDPTVHWLFTTCGASGPHGPTQAQCNNAYQNSNLSVEVGSEGPLKGIQIWKVPATDTYSISGYGAAGGKGGKNTMMRSHGVSVLGIFNLEKDDMLYILVGQQGEDACPSTNQLIQKVCIGENNVIEEEIRVNRSVHEWAGGGGGGGGATYVFKMKDGVPVPLIIAAGGGGRAYGAKTDTFHPERLENNSSVLGLNGNSGAAGGGGGWNDNTSLLWAGKSLQEGATGGHSCPQAMKKWGWETRGGFGGGGGGCSSGGGGGGYIGGNAASNNDPEMDGEDGVSFISPLGILYTPALKVMEGHGEVNIKHYLNCSHCEVDECHMDPESHKVICFCDHGTVLAEDGVSCIVSPTPEPHLPLSLILSVVTSALVAALVLAFSGIMIVYRRKHQELQAMQMELQSPEYKLSKLRTSTIMTDYNPNYCFAGKTSSISDLKEVPRKNITLIRGLGHGAFGEVYEGQVSGMPNDPSPLQVAVKTLPEVCSEQDELDFLMEALIISKFNHQNIVRCIGVSLQSLPRFILLELMAGGDLKSFLRETRPRPSQPSSLAMLDLLHVARDIACGCQYLEENHFIHRDIAARNCLLTCPGPGRVAKIGDFGMARDIYRASYYRKGGCAMLPVKWMPPEAFMEGIFTSKTDTWSFGVLLWEIFSLGYMPYPSKSNQEVLEFVTSGGRMDPPKNCPGPVYRIMTQCWQHQPEDRPNFAIILERIEYCTQDPDVINTALPIEYGPLVEEEEKVPVRPKDPEGVPPLLVSQQAKREEERSPAAPPPLPTTSSGKAAKKPTAAEISVRVPRGPAVEGGHVNMAFSQSNPPSELHKVHGSRNKPTSLWNPTYGSWFTEKPTKKNNPIAKKEPHDRGNLGLEGSCTVPPNVATGRLPGASLLLEPSSLTANMKEVPLFRLRHFPCGNVNYGYQQQGLPLEAATAPGAGHYEDTILKSKNSMNQPGP

> <PDB ID(s) of Target Chain>
2XB7,2XBA,3AOX,5FTO,5FTQ,6E0R,6EBW,6EDL,6MX8

> <UniProt (SwissProt) Recommended Name of Target Chain>
ALK tyrosine kinase receptor

> <UniProt (SwissProt) Entry Name of Target Chain>
ALK_HUMAN

> <UniProt (SwissProt) Primary ID of Target Chain>
Q9UM73

> <UniProt (SwissProt) Secondary ID(s) of Target Chain>
Q4ZFX9,Q53QQ6,Q53RZ4,Q59FI3,Q9Y4K6

> <UniProt (SwissProt) Alternative ID(s) of Target Chain>


> <UniProt (TrEMBL) Submitted Name of Target Chain>


> <UniProt (TrEMBL) Entry Name of Target Chain>


> <UniProt (TrEMBL) Primary ID of Target Chain>


> <UniProt (TrEMBL) Secondary ID(s) of Target Chain>


> <UniProt (TrEMBL) Alternative ID(s) of Target Chain>


$$$$
BindingDB_50436860_mol_1

Vconf v2.0 Academic SN VC001-00000579
 80 83  0  0  0  0  0  0  0  0999 V2000
   11.7040   -8.8570   -0.2130 O   0  0  0  0  0  0  0  0  0  0  0
   11.8920  -10.2720   -0.9150 S   0  0  0  0  0  0  0  0  0  0  0
   10.7860  -11.3920   -0.6850 O   0  0  0  0  0  0  0  0  0  0  0
   13.4620  -10.9700   -0.6030 C   0  0  0  0  0  0  0  0  0  0  0
   13.5580  -12.3740   -0.6590 C   0  0  0  0  0  0  0  0  0  0  0
   14.7850  -13.0190   -0.4470 C   0  0  0  0  0  0  0  0  0  0  0
   15.9290  -12.2590   -0.1770 C   0  0  0  0  0  0  0  0  0  0  0
   15.8430  -10.8590   -0.1190 C   0  0  0  0  0  0  0  0  0  0  0
   14.6130  -10.1860   -0.3340 C   0  0  0  0  0  0  0  0  0  0  0
   14.4510   -8.8270   -0.2870 N   0  0  0  0  0  0  0  0  0  0  0
   15.3640   -7.8280   -0.1200 C   0  0  0  0  0  0  0  0  0  0  0
   16.6970   -8.0610   -0.0690 N   0  0  0  0  0  0  0  0  0  0  0
   17.6230   -7.0860    0.0920 C   0  0  0  0  0  0  0  0  0  0  0
   17.1980   -5.8090    0.2110 N   0  0  0  0  0  0  0  0  0  0  0
   15.8810   -5.4950    0.1660 C   0  0  0  0  0  0  0  0  0  0  0
   14.9100   -6.4980   -0.0010 C   0  0  0  0  0  0  0  0  0  0  0
   11.7520   -9.9290   -2.6860 C   0  0  0  0  0  0  0  0  0  0  0
   12.7690   -8.8690   -3.1340 C   0  0  0  0  0  0  0  0  0  0  0
   11.9330  -11.2100   -3.5150 C   0  0  0  0  0  0  0  0  0  0  0
   18.9460   -7.3590    0.1710 N   0  0  0  0  0  0  0  0  0  0  0
   19.4620   -8.6090    0.0900 C   0  0  0  0  0  0  0  0  0  0  0
   20.0930   -9.1850    1.2090 C   0  0  0  0  0  0  0  0  0  0  0
   20.6430  -10.4730    1.1120 C   0  0  0  0  0  0  0  0  0  0  0
   20.5590  -11.2210   -0.0820 C   0  0  0  0  0  0  0  0  0  0  0
   19.9140  -10.6430   -1.2050 C   0  0  0  0  0  0  0  0  0  0  0
   19.3810   -9.3420   -1.1090 C   0  0  0  0  0  0  0  0  0  0  0
   20.1790   -8.5390    2.4030 O   0  0  0  0  0  0  0  0  0  0  0
   19.0090   -8.3860    3.2180 C   0  0  0  0  0  0  0  0  0  0  0
   21.1370  -12.5910   -0.1170 C   0  0  0  0  0  0  0  0  0  0  0
   22.6520  -12.5910    0.1780 C   0  0  0  0  0  0  0  0  0  0  0
   23.1940  -14.0270    0.1250 C   0  0  0  0  0  0  0  0  0  0  0
   22.4910  -14.8750    1.1080 N   0  0  0  0  0  0  0  0  0  0  0
   21.0480  -14.9360    0.8000 C   0  0  0  0  0  0  0  0  0  0  0
   20.4280  -13.5330    0.8770 C   0  0  0  0  0  0  0  0  0  0  0
   18.4300   -9.7450    3.6490 C   0  0  0  0  0  0  0  0  0  0  0
   19.4060   -7.5790    4.4600 C   0  0  0  0  0  0  0  0  0  0  0
   19.7770  -11.3740   -2.4780 C   0  0  0  0  0  0  0  0  0  0  0
   23.0620  -16.2330    1.0910 C   0  0  0  0  0  0  0  0  0  0  0
   13.4760   -6.1600   -0.0240 C   0  0  0  0  0  0  0  0  0  0  0
   12.7290  -12.9330   -0.8620 H   0  0  0  0  0  0  0  0  0  0  0
   14.8430  -14.0370   -0.4900 H   0  0  0  0  0  0  0  0  0  0  0
   16.8250  -12.7210   -0.0180 H   0  0  0  0  0  0  0  0  0  0  0
   16.6950  -10.3500    0.0960 H   0  0  0  0  0  0  0  0  0  0  0
   13.5410   -8.5150   -0.3830 H   0  0  0  0  0  0  0  0  0  0  0
   15.5970   -4.5200    0.2610 H   0  0  0  0  0  0  0  0  0  0  0
   10.7490   -9.5410   -2.8710 H   0  0  0  0  0  0  0  0  0  0  0
   12.6170   -8.6370   -4.1880 H   0  0  0  0  0  0  0  0  0  0  0
   12.6270   -7.9630   -2.5480 H   0  0  0  0  0  0  0  0  0  0  0
   13.7840   -9.2380   -2.9900 H   0  0  0  0  0  0  0  0  0  0  0
   11.7510  -10.9950   -4.5680 H   0  0  0  0  0  0  0  0  0  0  0
   12.9470  -11.5920   -3.3970 H   0  0  0  0  0  0  0  0  0  0  0
   11.2230  -11.9660   -3.1780 H   0  0  0  0  0  0  0  0  0  0  0
   19.5520   -6.6240    0.3480 H   0  0  0  0  0  0  0  0  0  0  0
   21.0960  -10.8770    1.9320 H   0  0  0  0  0  0  0  0  0  0  0
   18.9180   -8.9240   -1.9180 H   0  0  0  0  0  0  0  0  0  0  0
   18.2400   -7.8290    2.6830 H   0  0  0  0  0  0  0  0  0  0  0
   21.0130  -13.0290   -1.1070 H   0  0  0  0  0  0  0  0  0  0  0
   22.8490  -12.1830    1.1700 H   0  0  0  0  0  0  0  0  0  0  0
   23.1730  -11.9860   -0.5660 H   0  0  0  0  0  0  0  0  0  0  0
   23.0640  -14.4270   -0.8830 H   0  0  0  0  0  0  0  0  0  0  0
   24.2590  -14.0030    0.3600 H   0  0  0  0  0  0  0  0  0  0  0
   20.8910  -15.3470   -0.1990 H   0  0  0  0  0  0  0  0  0  0  0
   20.5470  -15.5750    1.5280 H   0  0  0  0  0  0  0  0  0  0  0
   20.5340  -13.1610    1.8970 H   0  0  0  0  0  0  0  0  0  0  0
   19.3670  -13.5990    0.6290 H   0  0  0  0  0  0  0  0  0  0  0
   17.5960   -9.5890    4.3330 H   0  0  0  0  0  0  0  0  0  0  0
   18.0710  -10.2880    2.7740 H   0  0  0  0  0  0  0  0  0  0  0
   19.2020  -10.3340    4.1460 H   0  0  0  0  0  0  0  0  0  0  0
   18.5320   -7.4230    5.0930 H   0  0  0  0  0  0  0  0  0  0  0
   20.1690   -8.1190    5.0220 H   0  0  0  0  0  0  0  0  0  0  0
   19.8030   -6.6120    4.1520 H   0  0  0  0  0  0  0  0  0  0  0
   19.2460  -10.7820   -3.2250 H   0  0  0  0  0  0  0  0  0  0  0
   20.7670  -11.6150   -2.8690 H   0  0  0  0  0  0  0  0  0  0  0
   19.2190  -12.2960   -2.3100 H   0  0  0  0  0  0  0  0  0  0  0
   22.5540  -16.8550    1.8290 H   0  0  0  0  0  0  0  0  0  0  0
   22.9490  -16.6830    0.1030 H   0  0  0  0  0  0  0  0  0  0  0
   24.1220  -16.1890    1.3440 H   0  0  0  0  0  0  0  0  0  0  0
   13.3210   -5.0880    0.1130 H   0  0  0  0  0  0  0  0  0  0  0
   13.0440   -6.4540   -0.9790 H   0  0  0  0  0  0  0  0  0  0  0
   12.9630   -6.6910    0.7800 H   0  0  0  0  0  0  0  0  0  0  0
  1  2  2  0  0  0  0
  2  3  2  0  0  0  0
  2  4  1  0  0  0  0
  2 17  1  0  0  0  0
  4  5  2  0  0  0  0
  4  9  1  0  0  0  0
  5  6  1  0  0  0  0
  5 40  1  0  0  0  0
  6  7  2  0  0  0  0
  6 41  1  0  0  0  0
  7  8  1  0  0  0  0
  7 42  1  0  0  0  0
  8  9  2  0  0  0  0
  8 43  1  0  0  0  0
  9 10  1  0  0  0  0
 10 11  1  0  0  0  0
 10 44  1  0  0  0  0
 11 12  2  0  0  0  0
 11 16  1  0  0  0  0
 12 13  1  0  0  0  0
 13 14  2  0  0  0  0
 13 20  1  0  0  0  0
 14 15  1  0  0  0  0
 15 16  2  0  0  0  0
 15 45  1  0  0  0  0
 16 39  1  0  0  0  0
 17 18  1  0  0  0  0
 17 19  1  0  0  0  0
 17 46  1  0  0  0  0
 18 47  1  0  0  0  0
 18 48  1  0  0  0  0
 18 49  1  0  0  0  0
 19 50  1  0  0  0  0
 19 51  1  0  0  0  0
 19 52  1  0  0  0  0
 20 21  1  0  0  0  0
 20 53  1  0  0  0  0
 21 22  2  0  0  0  0
 21 26  1  0  0  0  0
 22 23  1  0  0  0  0
 22 27  1  0  0  0  0
 23 24  2  0  0  0  0
 23 54  1  0  0  0  0
 24 25  1  0  0  0  0
 24 29  1  0  0  0  0
 25 26  2  0  0  0  0
 25 37  1  0  0  0  0
 26 55  1  0  0  0  0
 27 28  1  0  0  0  0
 28 35  1  0  0  0  0
 28 36  1  0  0  0  0
 28 56  1  0  0  0  0
 29 30  1  0  0  0  0
 29 34  1  0  0  0  0
 29 57  1  0  0  0  0
 30 31  1  0  0  0  0
 30 58  1  0  0  0  0
 30 59  1  0  0  0  0
 31 32  1  0  0  0  0
 31 60  1  0  0  0  0
 31 61  1  0  0  0  0
 32 33  1  0  0  0  0
 32 38  1  0  0  0  0
 33 34  1  0  0  0  0
 33 62  1  0  0  0  0
 33 63  1  0  0  0  0
 34 64  1  0  0  0  0
 34 65  1  0  0  0  0
 35 66  1  0  0  0  0
 35 67  1  0  0  0  0
 35 68  1  0  0  0  0
 36 69  1  0  0  0  0
 36 70  1  0  0  0  0
 36 71  1  0  0  0  0
 37 72  1  0  0  0  0
 37 73  1  0  0  0  0
 37 74  1  0  0  0  0
 38 75  1  0  0  0  0
 38 76  1  0  0  0  0
 38 77  1  0  0  0  0
 39 78  1  0  0  0  0
 39 79  1  0  0  0  0
 39 80  1  0  0  0  0
M  END
> <From>
www.bindingDB.org

> <BindingDB Reactant_set_id>
51069474

> <Ligand InChI>
InChI=1S/C30H41N5O3S/c1-19(2)38-27-17-24(23-12-14-35(7)15-13-23)21(5)16-26(27)33-30-31-18-22(6)29(34-30)32-25-10-8-9-11-28(25)39(36,37)20(3)4/h8-11,16-20,23H,12-15H2,1-7H3,(H2,31,32,33,34)

> <Ligand InChI Key>
UARGTPGGYPAFBV-UHFFFAOYSA-N

> <BindingDB MonomerID>
50436860

> <BindingDB Ligand Name>
CHEMBL2403843

> <Target Name Assigned by Curator or DataSource>
ALK tyrosine kinase receptor

> <Target Source Organism According to Curator or DataSource>
Homo sapiens

> <Ki (nM)>


> <IC50 (nM)>
 15

> <Kd (nM)>


> <EC50 (nM)>


> <kon (M-1-s-1)>


> <koff (s-1)>


> <pH>


> <Temp C>


> <Curation/DataSource>
ChEMBL

> <Article DOI>
10.1021/jm400402q

> <PMID>
23742252

> <PubChem AID>


> <Patent Number>


> <Authors>
Marsilje, TH; Pei, W; Chen, B; Lu, W; Uno, T; Jin, Y; Jiang, T; Kim, S; Li, N; Warmuth, M; Sarkisova, Y; Sun, F; Steffy, A; Pferdekamper, AC; Li, AG; Joseph, SB; Kim, Y; Liu, B; Tuntland, T; Cui, X; Gray, NS; Steensma, R; Wan, Y; Jiang, J; Chopiuk, G; Li, J; Gordon, WP; Richmond, W; Johnson, K; Chang, J; Groessl, T; He, YQ; Phimister, A; Aycinena, A; Lee, CC; Bursulaya, B; Karanewsky, DS; Seidel, HM; Harris, JL; Michellys, PY

> <Institution>
Genomics Institute of the Novartis Research Foundation 

> <Link to Ligand in BindingDB>
http://www.bindingdb.org/bind/chemsearch/marvin/MolStructure.jsp?monomerid=50436860

> <Link to Ligand-Target Pair in BindingDB>
http://www.bindingdb.org/jsp/dbsearch/PrimarySearch_ki.jsp?energyterm=kJ/mole&tag=pol&polymerid=5809&target=ALK+tyrosine+kinase+receptor&column=ki&startPg=0&Increment=50&submit=Search

> <Link to Ligand-Target Pair in BindingDB>
http://www.bindingdb.org/jsp/dbsearch/PrimarySearch_ki.jsp?energyterm=kJ/mole&tag=r21&monomerid=50436860&enzyme=ALK+tyrosine+kinase+receptor&column=ki&startPg=0&Increment=50&submit=Search

> <Ligand HET ID in PDB>


> <PDB ID(s) for Ligand-Target Complex>


> <PubChem CID>
25160153

> <PubChem SID>
175449177

> <ChEBI ID of Ligand>


> <ChEMBL ID of Ligand>
CHEMBL2403843

> <DrugBank ID of Ligand>


> <IUPHAR_GRAC ID of Ligand>


> <KEGG ID of Ligand>


> <ZINC ID of Ligand>
ZINC96272782

> <Number of Protein Chains in Target (>1 implies a multichain complex)>
1

> <BindingDB Target Chain Sequence>
MGAIGLLWLLPLLLSTAAVGSGMGTGQRAGSPAAGPPLQPREPLSYSRLQRKSLAVDFVVPSLFRVYARDLLLPPSSSELKAGRPEARGSLALDCAPLLRLLGPAPGVSWTAGSPAPAEARTLSRVLKGGSVRKLRRAKQLVLELGEEAILEGCVGPPGEAAVGLLQFNLSELFSWWIRQGEGRLRIRLMPEKKASEVGREGRLSAAIRASQPRLLFQIFGTGHSSLESPTNMPSPSPDYFTWNLTWIMKDSFPFLSHRSRYGLECSFDFPCELEYSPPLHDLRNQSWSWRRIPSEEASQMDLLDGPGAERSKEMPRGSFLLLNTSADSKHTILSPWMRSSSEHCTLAVSVHRHLQPSGRYIAQLLPHNEAAREILLMPTPGKHGWTVLQGRIGRPDNPFRVALEYISSGNRSLSAVDFFALKNCSEGTSPGSKMALQSSFTCWNGTVLQLGQACDFHQDCAQGEDESQMCRKLPVGFYCNFEDGFCGWTQGTLSPHTPQWQVRTLKDARFQDHQDHALLLSTTDVPASESATVTSATFPAPIKSSPCELRMSWLIRGVLRGNVSLVLVENKTGKEQGRMVWHVAAYEGLSLWQWMVLPLLDVSDRFWLQMVAWWGQGSRAIVAFDNISISLDCYLTISGEDKILQNTAPKSRNLFERNPNKELKPGENSPRQTPIFDPTVHWLFTTCGASGPHGPTQAQCNNAYQNSNLSVEVGSEGPLKGIQIWKVPATDTYSISGYGAAGGKGGKNTMMRSHGVSVLGIFNLEKDDMLYILVGQQGEDACPSTNQLIQKVCIGENNVIEEEIRVNRSVHEWAGGGGGGGGATYVFKMKDGVPVPLIIAAGGGGRAYGAKTDTFHPERLENNSSVLGLNGNSGAAGGGGGWNDNTSLLWAGKSLQEGATGGHSCPQAMKKWGWETRGGFGGGGGGCSSGGGGGGYIGGNAASNNDPEMDGEDGVSFISPLGILYTPALKVMEGHGEVNIKHYLNCSHCEVDECHMDPESHKVICFCDHGTVLAEDGVSCIVSPTPEPHLPLSLILSVVTSALVAALVLAFSGIMIVYRRKHQELQAMQMELQSPEYKLSKLRTSTIMTDYNPNYCFAGKTSSISDLKEVPRKNITLIRGLGHGAFGEVYEGQVSGMPNDPSPLQVAVKTLPEVCSEQDELDFLMEALIISKFNHQNIVRCIGVSLQSLPRFILLELMAGGDLKSFLRETRPRPSQPSSLAMLDLLHVARDIACGCQYLEENHFIHRDIAARNCLLTCPGPGRVAKIGDFGMARDIYRASYYRKGGCAMLPVKWMPPEAFMEGIFTSKTDTWSFGVLLWEIFSLGYMPYPSKSNQEVLEFVTSGGRMDPPKNCPGPVYRIMTQCWQHQPEDRPNFAIILERIEYCTQDPDVINTALPIEYGPLVEEEEKVPVRPKDPEGVPPLLVSQQAKREEERSPAAPPPLPTTSSGKAAKKPTAAEISVRVPRGPAVEGGHVNMAFSQSNPPSELHKVHGSRNKPTSLWNPTYGSWFTEKPTKKNNPIAKKEPHDRGNLGLEGSCTVPPNVATGRLPGASLLLEPSSLTANMKEVPLFRLRHFPCGNVNYGYQQQGLPLEAATAPGAGHYEDTILKSKNSMNQPGP

> <PDB ID(s) of Target Chain>
2XB7,2XBA,3AOX,5FTO,5FTQ,6E0R,6EBW,6EDL,6MX8

> <UniProt (SwissProt) Recommended Name of Target Chain>
ALK tyrosine kinase receptor

> <UniProt (SwissProt) Entry Name of Target Chain>
ALK_HUMAN

> <UniProt (SwissProt) Primary ID of Target Chain>
Q9UM73

> <UniProt (SwissProt) Secondary ID(s) of Target Chain>
Q4ZFX9,Q53QQ6,Q53RZ4,Q59FI3,Q9Y4K6

> <UniProt (SwissProt) Alternative ID(s) of Target Chain>


> <UniProt (TrEMBL) Submitted Name of Target Chain>


> <UniProt (TrEMBL) Entry Name of Target Chain>


> <UniProt (TrEMBL) Primary ID of Target Chain>


> <UniProt (TrEMBL) Secondary ID(s) of Target Chain>


> <UniProt (TrEMBL) Alternative ID(s) of Target Chain>


$$$$
BindingDB_50436861_mol_1

Vconf v2.0 Academic SN VC001-00000579
 77 80  0  0  0  0  0  0  0  0999 V2000
   29.1270  -15.4350   -1.3430 O   0  0  0  0  0  0  0  0  0  0  0
   27.5750  -15.7240   -1.1420 S   0  0  0  0  0  0  0  0  0  0  0
   26.7760  -14.8660   -0.0680 O   0  0  0  0  0  0  0  0  0  0  0
   27.3560  -17.4360   -0.8880 C   0  0  0  0  0  0  0  0  0  0  0
   28.4070  -18.2820   -1.2950 C   0  0  0  0  0  0  0  0  0  0  0
   28.3140  -19.6710   -1.1360 C   0  0  0  0  0  0  0  0  0  0  0
   27.1650  -20.2250   -0.5580 C   0  0  0  0  0  0  0  0  0  0  0
   26.1120  -19.3890   -0.1530 C   0  0  0  0  0  0  0  0  0  0  0
   26.1770  -17.9850   -0.3220 C   0  0  0  0  0  0  0  0  0  0  0
   25.1790  -17.1110    0.0240 N   0  0  0  0  0  0  0  0  0  0  0
   23.9160  -17.3350    0.5000 C   0  0  0  0  0  0  0  0  0  0  0
   23.4120  -18.5840    0.6600 N   0  0  0  0  0  0  0  0  0  0  0
   22.1580  -18.8400    1.1060 C   0  0  0  0  0  0  0  0  0  0  0
   21.3610  -17.7930    1.4120 N   0  0  0  0  0  0  0  0  0  0  0
   21.7860  -16.5150    1.2820 C   0  0  0  0  0  0  0  0  0  0  0
   23.0840  -16.2390    0.8210 C   0  0  0  0  0  0  0  0  0  0  0
   26.8720  -15.2610   -2.7430 C   0  0  0  0  0  0  0  0  0  0  0
   27.5280  -16.0550   -3.8830 C   0  0  0  0  0  0  0  0  0  0  0
   25.3500  -15.4670   -2.7690 C   0  0  0  0  0  0  0  0  0  0  0
   23.5750  -14.6220    0.6890 Cl  0  0  0  0  0  0  0  0  0  0  0
   21.6700  -20.0920    1.2790 N   0  0  0  0  0  0  0  0  0  0  0
   22.3460  -21.2500    1.0650 C   0  0  0  0  0  0  0  0  0  0  0
   22.2680  -22.2570    2.0440 C   0  0  0  0  0  0  0  0  0  0  0
   22.9710  -23.4630    1.8510 C   0  0  0  0  0  0  0  0  0  0  0
   23.7320  -23.6970    0.6870 C   0  0  0  0  0  0  0  0  0  0  0
   23.7830  -22.6900   -0.3090 C   0  0  0  0  0  0  0  0  0  0  0
   23.0830  -21.4830   -0.1130 C   0  0  0  0  0  0  0  0  0  0  0
   21.5200  -21.9970    3.1600 O   0  0  0  0  0  0  0  0  0  0  0
   21.0870  -22.9950    4.0920 C   0  0  0  0  0  0  0  0  0  0  0
   24.4570  -24.9890    0.5470 C   0  0  0  0  0  0  0  0  0  0  0
   25.5290  -25.1650    1.6420 C   0  0  0  0  0  0  0  0  0  0  0
   26.2550  -26.5050    1.4560 C   0  0  0  0  0  0  0  0  0  0  0
   25.2890  -27.6200    1.5160 N   0  0  0  0  0  0  0  0  0  0  0
   24.2990  -27.5020    0.4270 C   0  0  0  0  0  0  0  0  0  0  0
   23.5000  -26.1990    0.5770 C   0  0  0  0  0  0  0  0  0  0  0
   20.4750  -22.2670    5.2950 C   0  0  0  0  0  0  0  0  0  0  0
   20.0330  -23.9200    3.4630 C   0  0  0  0  0  0  0  0  0  0  0
   24.5610  -22.8660   -1.5490 C   0  0  0  0  0  0  0  0  0  0  0
   26.0030  -28.9040    1.4060 C   0  0  0  0  0  0  0  0  0  0  0
   29.2460  -17.8830   -1.7140 H   0  0  0  0  0  0  0  0  0  0  0
   29.0800  -20.2740   -1.4340 H   0  0  0  0  0  0  0  0  0  0  0
   27.0930  -21.2340   -0.4300 H   0  0  0  0  0  0  0  0  0  0  0
   25.3060  -19.8320    0.2760 H   0  0  0  0  0  0  0  0  0  0  0
   25.3940  -16.1760   -0.0980 H   0  0  0  0  0  0  0  0  0  0  0
   21.1490  -15.7550    1.5270 H   0  0  0  0  0  0  0  0  0  0  0
   27.0750  -14.2020   -2.9020 H   0  0  0  0  0  0  0  0  0  0  0
   27.1590  -15.6930   -4.8420 H   0  0  0  0  0  0  0  0  0  0  0
   28.6100  -15.9220   -3.8430 H   0  0  0  0  0  0  0  0  0  0  0
   27.2930  -17.1150   -3.7840 H   0  0  0  0  0  0  0  0  0  0  0
   24.9490  -15.1150   -3.7200 H   0  0  0  0  0  0  0  0  0  0  0
   25.1120  -16.5240   -2.6490 H   0  0  0  0  0  0  0  0  0  0  0
   24.8950  -14.8990   -1.9590 H   0  0  0  0  0  0  0  0  0  0  0
   20.7820  -20.1650    1.6600 H   0  0  0  0  0  0  0  0  0  0  0
   22.9310  -24.1840    2.5690 H   0  0  0  0  0  0  0  0  0  0  0
   23.1170  -20.7610   -0.8330 H   0  0  0  0  0  0  0  0  0  0  0
   21.9340  -23.5840    4.4470 H   0  0  0  0  0  0  0  0  0  0  0
   24.9780  -25.0280   -0.4090 H   0  0  0  0  0  0  0  0  0  0  0
   25.0690  -25.1540    2.6320 H   0  0  0  0  0  0  0  0  0  0  0
   26.2570  -24.3550    1.5790 H   0  0  0  0  0  0  0  0  0  0  0
   26.7770  -26.5060    0.4970 H   0  0  0  0  0  0  0  0  0  0  0
   26.9880  -26.6150    2.2570 H   0  0  0  0  0  0  0  0  0  0  0
   24.7990  -27.5110   -0.5440 H   0  0  0  0  0  0  0  0  0  0  0
   23.6030  -28.3410    0.4740 H   0  0  0  0  0  0  0  0  0  0  0
   22.9560  -26.2330    1.5220 H   0  0  0  0  0  0  0  0  0  0  0
   22.7840  -26.1230   -0.2430 H   0  0  0  0  0  0  0  0  0  0  0
   20.1350  -22.9940    6.0340 H   0  0  0  0  0  0  0  0  0  0  0
   21.2260  -21.6200    5.7480 H   0  0  0  0  0  0  0  0  0  0  0
   19.6290  -21.6610    4.9690 H   0  0  0  0  0  0  0  0  0  0  0
   19.6710  -24.6260    4.2110 H   0  0  0  0  0  0  0  0  0  0  0
   19.1960  -23.3250    3.0940 H   0  0  0  0  0  0  0  0  0  0  0
   20.4680  -24.4760    2.6330 H   0  0  0  0  0  0  0  0  0  0  0
   24.4970  -21.9850   -2.1910 H   0  0  0  0  0  0  0  0  0  0  0
   25.6100  -23.0340   -1.3020 H   0  0  0  0  0  0  0  0  0  0  0
   24.1790  -23.7240   -2.1030 H   0  0  0  0  0  0  0  0  0  0  0
   25.2920  -29.7280    1.4740 H   0  0  0  0  0  0  0  0  0  0  0
   26.5340  -28.9670    0.4540 H   0  0  0  0  0  0  0  0  0  0  0
   26.7210  -28.9960    2.2220 H   0  0  0  0  0  0  0  0  0  0  0
  1  2  2  0  0  0  0
  2  3  2  0  0  0  0
  2  4  1  0  0  0  0
  2 17  1  0  0  0  0
  4  5  2  0  0  0  0
  4  9  1  0  0  0  0
  5  6  1  0  0  0  0
  5 40  1  0  0  0  0
  6  7  2  0  0  0  0
  6 41  1  0  0  0  0
  7  8  1  0  0  0  0
  7 42  1  0  0  0  0
  8  9  2  0  0  0  0
  8 43  1  0  0  0  0
  9 10  1  0  0  0  0
 10 11  1  0  0  0  0
 10 44  1  0  0  0  0
 11 12  2  0  0  0  0
 11 16  1  0  0  0  0
 12 13  1  0  0  0  0
 13 14  2  0  0  0  0
 13 21  1  0  0  0  0
 14 15  1  0  0  0  0
 15 16  2  0  0  0  0
 15 45  1  0  0  0  0
 16 20  1  0  0  0  0
 17 18  1  0  0  0  0
 17 19  1  0  0  0  0
 17 46  1  0  0  0  0
 18 47  1  0  0  0  0
 18 48  1  0  0  0  0
 18 49  1  0  0  0  0
 19 50  1  0  0  0  0
 19 51  1  0  0  0  0
 19 52  1  0  0  0  0
 21 22  1  0  0  0  0
 21 53  1  0  0  0  0
 22 23  2  0  0  0  0
 22 27  1  0  0  0  0
 23 24  1  0  0  0  0
 23 28  1  0  0  0  0
 24 25  2  0  0  0  0
 24 54  1  0  0  0  0
 25 26  1  0  0  0  0
 25 30  1  0  0  0  0
 26 27  2  0  0  0  0
 26 38  1  0  0  0  0
 27 55  1  0  0  0  0
 28 29  1  0  0  0  0
 29 36  1  0  0  0  0
 29 37  1  0  0  0  0
 29 56  1  0  0  0  0
 30 31  1  0  0  0  0
 30 35  1  0  0  0  0
 30 57  1  0  0  0  0
 31 32  1  0  0  0  0
 31 58  1  0  0  0  0
 31 59  1  0  0  0  0
 32 33  1  0  0  0  0
 32 60  1  0  0  0  0
 32 61  1  0  0  0  0
 33 34  1  0  0  0  0
 33 39  1  0  0  0  0
 34 35  1  0  0  0  0
 34 62  1  0  0  0  0
 34 63  1  0  0  0  0
 35 64  1  0  0  0  0
 35 65  1  0  0  0  0
 36 66  1  0  0  0  0
 36 67  1  0  0  0  0
 36 68  1  0  0  0  0
 37 69  1  0  0  0  0
 37 70  1  0  0  0  0
 37 71  1  0  0  0  0
 38 72  1  0  0  0  0
 38 73  1  0  0  0  0
 38 74  1  0  0  0  0
 39 75  1  0  0  0  0
 39 76  1  0  0  0  0
 39 77  1  0  0  0  0
M  END
> <From>
www.bindingDB.org

> <BindingDB Reactant_set_id>
51069475

> <Ligand InChI>
InChI=1S/C29H38ClN5O3S/c1-18(2)38-26-16-22(21-11-13-35(6)14-12-21)20(5)15-25(26)33-29-31-17-23(30)28(34-29)32-24-9-7-8-10-27(24)39(36,37)19(3)4/h7-10,15-19,21H,11-14H2,1-6H3,(H2,31,32,33,34)

> <Ligand InChI Key>
NBMMGFKSCSDKBQ-UHFFFAOYSA-N

> <BindingDB MonomerID>
50436861

> <BindingDB Ligand Name>
CHEMBL2403849

> <Target Name Assigned by Curator or DataSource>
ALK tyrosine kinase receptor

> <Target Source Organism According to Curator or DataSource>
Homo sapiens

> <Ki (nM)>


> <IC50 (nM)>
 12

> <Kd (nM)>


> <EC50 (nM)>


> <kon (M-1-s-1)>


> <koff (s-1)>


> <pH>


> <Temp C>


> <Curation/DataSource>
ChEMBL

> <Article DOI>
10.1021/jm400402q

> <PMID>
23742252

> <PubChem AID>


> <Patent Number>


> <Authors>
Marsilje, TH; Pei, W; Chen, B; Lu, W; Uno, T; Jin, Y; Jiang, T; Kim, S; Li, N; Warmuth, M; Sarkisova, Y; Sun, F; Steffy, A; Pferdekamper, AC; Li, AG; Joseph, SB; Kim, Y; Liu, B; Tuntland, T; Cui, X; Gray, NS; Steensma, R; Wan, Y; Jiang, J; Chopiuk, G; Li, J; Gordon, WP; Richmond, W; Johnson, K; Chang, J; Groessl, T; He, YQ; Phimister, A; Aycinena, A; Lee, CC; Bursulaya, B; Karanewsky, DS; Seidel, HM; Harris, JL; Michellys, PY

> <Institution>
Genomics Institute of the Novartis Research Foundation 

> <Link to Ligand in BindingDB>
http://www.bindingdb.org/bind/chemsearch/marvin/MolStructure.jsp?monomerid=50436861

> <Link to Ligand-Target Pair in BindingDB>
http://www.bindingdb.org/jsp/dbsearch/PrimarySearch_ki.jsp?energyterm=kJ/mole&tag=pol&polymerid=5809&target=ALK+tyrosine+kinase+receptor&column=ki&startPg=0&Increment=50&submit=Search

> <Link to Ligand-Target Pair in BindingDB>
http://www.bindingdb.org/jsp/dbsearch/PrimarySearch_ki.jsp?energyterm=kJ/mole&tag=r21&monomerid=50436861&enzyme=ALK+tyrosine+kinase+receptor&column=ki&startPg=0&Increment=50&submit=Search

> <Ligand HET ID in PDB>


> <PDB ID(s) for Ligand-Target Complex>


> <PubChem CID>
59764524

> <PubChem SID>
175449178

> <ChEBI ID of Ligand>


> <ChEMBL ID of Ligand>
CHEMBL2403849

> <DrugBank ID of Ligand>


> <IUPHAR_GRAC ID of Ligand>


> <KEGG ID of Ligand>


> <ZINC ID of Ligand>
ZINC96272783

> <Number of Protein Chains in Target (>1 implies a multichain complex)>
1

> <BindingDB Target Chain Sequence>
MGAIGLLWLLPLLLSTAAVGSGMGTGQRAGSPAAGPPLQPREPLSYSRLQRKSLAVDFVVPSLFRVYARDLLLPPSSSELKAGRPEARGSLALDCAPLLRLLGPAPGVSWTAGSPAPAEARTLSRVLKGGSVRKLRRAKQLVLELGEEAILEGCVGPPGEAAVGLLQFNLSELFSWWIRQGEGRLRIRLMPEKKASEVGREGRLSAAIRASQPRLLFQIFGTGHSSLESPTNMPSPSPDYFTWNLTWIMKDSFPFLSHRSRYGLECSFDFPCELEYSPPLHDLRNQSWSWRRIPSEEASQMDLLDGPGAERSKEMPRGSFLLLNTSADSKHTILSPWMRSSSEHCTLAVSVHRHLQPSGRYIAQLLPHNEAAREILLMPTPGKHGWTVLQGRIGRPDNPFRVALEYISSGNRSLSAVDFFALKNCSEGTSPGSKMALQSSFTCWNGTVLQLGQACDFHQDCAQGEDESQMCRKLPVGFYCNFEDGFCGWTQGTLSPHTPQWQVRTLKDARFQDHQDHALLLSTTDVPASESATVTSATFPAPIKSSPCELRMSWLIRGVLRGNVSLVLVENKTGKEQGRMVWHVAAYEGLSLWQWMVLPLLDVSDRFWLQMVAWWGQGSRAIVAFDNISISLDCYLTISGEDKILQNTAPKSRNLFERNPNKELKPGENSPRQTPIFDPTVHWLFTTCGASGPHGPTQAQCNNAYQNSNLSVEVGSEGPLKGIQIWKVPATDTYSISGYGAAGGKGGKNTMMRSHGVSVLGIFNLEKDDMLYILVGQQGEDACPSTNQLIQKVCIGENNVIEEEIRVNRSVHEWAGGGGGGGGATYVFKMKDGVPVPLIIAAGGGGRAYGAKTDTFHPERLENNSSVLGLNGNSGAAGGGGGWNDNTSLLWAGKSLQEGATGGHSCPQAMKKWGWETRGGFGGGGGGCSSGGGGGGYIGGNAASNNDPEMDGEDGVSFISPLGILYTPALKVMEGHGEVNIKHYLNCSHCEVDECHMDPESHKVICFCDHGTVLAEDGVSCIVSPTPEPHLPLSLILSVVTSALVAALVLAFSGIMIVYRRKHQELQAMQMELQSPEYKLSKLRTSTIMTDYNPNYCFAGKTSSISDLKEVPRKNITLIRGLGHGAFGEVYEGQVSGMPNDPSPLQVAVKTLPEVCSEQDELDFLMEALIISKFNHQNIVRCIGVSLQSLPRFILLELMAGGDLKSFLRETRPRPSQPSSLAMLDLLHVARDIACGCQYLEENHFIHRDIAARNCLLTCPGPGRVAKIGDFGMARDIYRASYYRKGGCAMLPVKWMPPEAFMEGIFTSKTDTWSFGVLLWEIFSLGYMPYPSKSNQEVLEFVTSGGRMDPPKNCPGPVYRIMTQCWQHQPEDRPNFAIILERIEYCTQDPDVINTALPIEYGPLVEEEEKVPVRPKDPEGVPPLLVSQQAKREEERSPAAPPPLPTTSSGKAAKKPTAAEISVRVPRGPAVEGGHVNMAFSQSNPPSELHKVHGSRNKPTSLWNPTYGSWFTEKPTKKNNPIAKKEPHDRGNLGLEGSCTVPPNVATGRLPGASLLLEPSSLTANMKEVPLFRLRHFPCGNVNYGYQQQGLPLEAATAPGAGHYEDTILKSKNSMNQPGP

> <PDB ID(s) of Target Chain>
2XB7,2XBA,3AOX,5FTO,5FTQ,6E0R,6EBW,6EDL,6MX8

> <UniProt (SwissProt) Recommended Name of Target Chain>
ALK tyrosine kinase receptor

> <UniProt (SwissProt) Entry Name of Target Chain>
ALK_HUMAN

> <UniProt (SwissProt) Primary ID of Target Chain>
Q9UM73

> <UniProt (SwissProt) Secondary ID(s) of Target Chain>
Q4ZFX9,Q53QQ6,Q53RZ4,Q59FI3,Q9Y4K6

> <UniProt (SwissProt) Alternative ID(s) of Target Chain>


> <UniProt (TrEMBL) Submitted Name of Target Chain>


> <UniProt (TrEMBL) Entry Name of Target Chain>


> <UniProt (TrEMBL) Primary ID of Target Chain>


> <UniProt (TrEMBL) Secondary ID(s) of Target Chain>


> <UniProt (TrEMBL) Alternative ID(s) of Target Chain>


$$$$
BindingDB_50436862_mol_1

Vconf v2.0 Academic SN VC001-00000579
 71 74  0  0  0  0  0  0  0  0999 V2000
    5.4950   -9.5550   -2.4460 O   0  0  0  0  0  0  0  0  0  0  0
    4.0340   -9.6900   -1.8300 S   0  0  0  0  0  0  0  0  0  0  0
    3.5100   -8.5930   -0.8050 O   0  0  0  0  0  0  0  0  0  0  0
    3.8460  -11.3090   -1.2080 C   0  0  0  0  0  0  0  0  0  0  0
    4.7670  -12.2800   -1.6480 C   0  0  0  0  0  0  0  0  0  0  0
    4.6630  -13.6120   -1.2230 C   0  0  0  0  0  0  0  0  0  0  0
    3.6310  -13.9820   -0.3510 C   0  0  0  0  0  0  0  0  0  0  0
    2.7080  -13.0210    0.0880 C   0  0  0  0  0  0  0  0  0  0  0
    2.7880  -11.6720   -0.3370 C   0  0  0  0  0  0  0  0  0  0  0
    1.9120  -10.6860    0.0330 N   0  0  0  0  0  0  0  0  0  0  0
    0.7200  -10.7620    0.6950 C   0  0  0  0  0  0  0  0  0  0  0
    0.1590  -11.9520    1.0170 N   0  0  0  0  0  0  0  0  0  0  0
   -1.0460  -12.0830    1.6190 C   0  0  0  0  0  0  0  0  0  0  0
   -1.7280  -10.9600    1.9320 N   0  0  0  0  0  0  0  0  0  0  0
   -1.2380   -9.7300    1.6500 C   0  0  0  0  0  0  0  0  0  0  0
    0.0040   -9.5860    1.0100 C   0  0  0  0  0  0  0  0  0  0  0
    2.9830   -9.5510   -3.2950 C   0  0  0  0  0  0  0  0  0  0  0
    1.4990   -9.7670   -2.9560 C   0  0  0  0  0  0  0  0  0  0  0
    3.1720   -8.1640   -3.9250 C   0  0  0  0  0  0  0  0  0  0  0
    0.5750   -8.0300    0.6560 Cl  0  0  0  0  0  0  0  0  0  0  0
   -1.5970  -13.2880    1.9010 N   0  0  0  0  0  0  0  0  0  0  0
   -1.0320  -14.4970    1.6410 C   0  0  0  0  0  0  0  0  0  0  0
   -0.4940  -14.8610    0.3830 C   0  0  0  0  0  0  0  0  0  0  0
    0.1200  -16.1150    0.2180 C   0  0  0  0  0  0  0  0  0  0  0
    0.1780  -17.0390    1.2790 C   0  0  0  0  0  0  0  0  0  0  0
   -0.3990  -16.6870    2.5160 C   0  0  0  0  0  0  0  0  0  0  0
   -1.0000  -15.4300    2.6930 C   0  0  0  0  0  0  0  0  0  0  0
   -0.5010  -14.0280   -0.6950 O   0  0  0  0  0  0  0  0  0  0  0
   -1.7320  -13.6380   -1.3110 C   0  0  0  0  0  0  0  0  0  0  0
    0.8420  -18.3510    1.0890 C   0  0  0  0  0  0  0  0  0  0  0
    2.0480  -18.5240    2.0350 C   0  0  0  0  0  0  0  0  0  0  0
    2.7030  -19.8930    1.7960 C   0  0  0  0  0  0  0  0  0  0  0
    1.7280  -20.9700    2.0240 N   0  0  0  0  0  0  0  0  0  0  0
    0.6040  -20.8580    1.0820 C   0  0  0  0  0  0  0  0  0  0  0
   -0.1360  -19.5270    1.2880 C   0  0  0  0  0  0  0  0  0  0  0
   -1.4230  -12.4970   -2.2880 C   0  0  0  0  0  0  0  0  0  0  0
   -2.3590  -14.8190   -2.0670 C   0  0  0  0  0  0  0  0  0  0  0
    5.5180  -12.0170   -2.2860 H   0  0  0  0  0  0  0  0  0  0  0
    5.3360  -14.3070   -1.5460 H   0  0  0  0  0  0  0  0  0  0  0
    3.5530  -14.9480   -0.0330 H   0  0  0  0  0  0  0  0  0  0  0
    1.9890  -13.3270    0.7390 H   0  0  0  0  0  0  0  0  0  0  0
    2.1570   -9.7910   -0.2410 H   0  0  0  0  0  0  0  0  0  0  0
   -1.7890   -8.9080    1.9040 H   0  0  0  0  0  0  0  0  0  0  0
    3.2910  -10.3080   -4.0170 H   0  0  0  0  0  0  0  0  0  0  0
    0.8910   -9.6030   -3.8460 H   0  0  0  0  0  0  0  0  0  0  0
    1.3430  -10.7880   -2.6080 H   0  0  0  0  0  0  0  0  0  0  0
    1.1930   -9.0680   -2.1790 H   0  0  0  0  0  0  0  0  0  0  0
    2.5720   -8.0840   -4.8310 H   0  0  0  0  0  0  0  0  0  0  0
    2.8660   -7.3930   -3.2170 H   0  0  0  0  0  0  0  0  0  0  0
    4.2230   -8.0210   -4.1780 H   0  0  0  0  0  0  0  0  0  0  0
   -2.4430  -13.2830    2.3740 H   0  0  0  0  0  0  0  0  0  0  0
    0.5250  -16.3550   -0.6870 H   0  0  0  0  0  0  0  0  0  0  0
   -0.3740  -17.3440    3.2960 H   0  0  0  0  0  0  0  0  0  0  0
   -1.4000  -15.1900    3.6010 H   0  0  0  0  0  0  0  0  0  0  0
   -2.4430  -13.2700   -0.5690 H   0  0  0  0  0  0  0  0  0  0  0
    1.2220  -18.4180    0.0670 H   0  0  0  0  0  0  0  0  0  0  0
    1.7260  -18.4680    3.0760 H   0  0  0  0  0  0  0  0  0  0  0
    2.7830  -17.7400    1.8450 H   0  0  0  0  0  0  0  0  0  0  0
    3.0850  -19.9460    0.7760 H   0  0  0  0  0  0  0  0  0  0  0
    3.5350  -20.0150    2.4900 H   0  0  0  0  0  0  0  0  0  0  0
    2.2030  -21.8520    1.8190 H   0  0  0  0  0  0  0  0  0  0  0
   -0.0890  -21.6810    1.2570 H   0  0  0  0  0  0  0  0  0  0  0
    0.9710  -20.9190    0.0560 H   0  0  0  0  0  0  0  0  0  0  0
   -0.5500  -19.5100    2.2970 H   0  0  0  0  0  0  0  0  0  0  0
   -0.9500  -19.4570    0.5660 H   0  0  0  0  0  0  0  0  0  0  0
   -2.3420  -12.1710   -2.7770 H   0  0  0  0  0  0  0  0  0  0  0
   -0.9910  -11.6590   -1.7410 H   0  0  0  0  0  0  0  0  0  0  0
   -0.7130  -12.8380   -3.0420 H   0  0  0  0  0  0  0  0  0  0  0
   -3.2650  -14.4910   -2.5770 H   0  0  0  0  0  0  0  0  0  0  0
   -1.6500  -15.2050   -2.8000 H   0  0  0  0  0  0  0  0  0  0  0
   -2.6150  -15.6110   -1.3630 H   0  0  0  0  0  0  0  0  0  0  0
  1  2  2  0  0  0  0
  2  3  2  0  0  0  0
  2  4  1  0  0  0  0
  2 17  1  0  0  0  0
  4  5  2  0  0  0  0
  4  9  1  0  0  0  0
  5  6  1  0  0  0  0
  5 38  1  0  0  0  0
  6  7  2  0  0  0  0
  6 39  1  0  0  0  0
  7  8  1  0  0  0  0
  7 40  1  0  0  0  0
  8  9  2  0  0  0  0
  8 41  1  0  0  0  0
  9 10  1  0  0  0  0
 10 11  1  0  0  0  0
 10 42  1  0  0  0  0
 11 12  2  0  0  0  0
 11 16  1  0  0  0  0
 12 13  1  0  0  0  0
 13 14  2  0  0  0  0
 13 21  1  0  0  0  0
 14 15  1  0  0  0  0
 15 16  2  0  0  0  0
 15 43  1  0  0  0  0
 16 20  1  0  0  0  0
 17 18  1  0  0  0  0
 17 19  1  0  0  0  0
 17 44  1  0  0  0  0
 18 45  1  0  0  0  0
 18 46  1  0  0  0  0
 18 47  1  0  0  0  0
 19 48  1  0  0  0  0
 19 49  1  0  0  0  0
 19 50  1  0  0  0  0
 21 22  1  0  0  0  0
 21 51  1  0  0  0  0
 22 23  2  0  0  0  0
 22 27  1  0  0  0  0
 23 24  1  0  0  0  0
 23 28  1  0  0  0  0
 24 25  2  0  0  0  0
 24 52  1  0  0  0  0
 25 26  1  0  0  0  0
 25 30  1  0  0  0  0
 26 27  2  0  0  0  0
 26 53  1  0  0  0  0
 27 54  1  0  0  0  0
 28 29  1  0  0  0  0
 29 36  1  0  0  0  0
 29 37  1  0  0  0  0
 29 55  1  0  0  0  0
 30 31  1  0  0  0  0
 30 35  1  0  0  0  0
 30 56  1  0  0  0  0
 31 32  1  0  0  0  0
 31 57  1  0  0  0  0
 31 58  1  0  0  0  0
 32 33  1  0  0  0  0
 32 59  1  0  0  0  0
 32 60  1  0  0  0  0
 33 34  1  0  0  0  0
 33 61  1  0  0  0  0
 34 35  1  0  0  0  0
 34 62  1  0  0  0  0
 34 63  1  0  0  0  0
 35 64  1  0  0  0  0
 35 65  1  0  0  0  0
 36 66  1  0  0  0  0
 36 67  1  0  0  0  0
 36 68  1  0  0  0  0
 37 69  1  0  0  0  0
 37 70  1  0  0  0  0
 37 71  1  0  0  0  0
M  END
> <From>
www.bindingDB.org

> <BindingDB Reactant_set_id>
51069476

> <Ligand InChI>
InChI=1S/C27H34ClN5O3S/c1-17(2)36-24-15-20(19-11-13-29-14-12-19)9-10-22(24)32-27-30-16-21(28)26(33-27)31-23-7-5-6-8-25(23)37(34,35)18(3)4/h5-10,15-19,29H,11-14H2,1-4H3,(H2,30,31,32,33)

> <Ligand InChI Key>
ZEURXJJLFFSRDT-UHFFFAOYSA-N

> <BindingDB MonomerID>
50436862

> <BindingDB Ligand Name>
CHEMBL2403845

> <Target Name Assigned by Curator or DataSource>
ALK tyrosine kinase receptor

> <Target Source Organism According to Curator or DataSource>
Homo sapiens

> <Ki (nM)>


> <IC50 (nM)>
 11

> <Kd (nM)>


> <EC50 (nM)>


> <kon (M-1-s-1)>


> <koff (s-1)>


> <pH>


> <Temp C>


> <Curation/DataSource>
ChEMBL

> <Article DOI>
10.1021/jm400402q

> <PMID>
23742252

> <PubChem AID>


> <Patent Number>


> <Authors>
Marsilje, TH; Pei, W; Chen, B; Lu, W; Uno, T; Jin, Y; Jiang, T; Kim, S; Li, N; Warmuth, M; Sarkisova, Y; Sun, F; Steffy, A; Pferdekamper, AC; Li, AG; Joseph, SB; Kim, Y; Liu, B; Tuntland, T; Cui, X; Gray, NS; Steensma, R; Wan, Y; Jiang, J; Chopiuk, G; Li, J; Gordon, WP; Richmond, W; Johnson, K; Chang, J; Groessl, T; He, YQ; Phimister, A; Aycinena, A; Lee, CC; Bursulaya, B; Karanewsky, DS; Seidel, HM; Harris, JL; Michellys, PY

> <Institution>
Genomics Institute of the Novartis Research Foundation 

> <Link to Ligand in BindingDB>
http://www.bindingdb.org/bind/chemsearch/marvin/MolStructure.jsp?monomerid=50436862

> <Link to Ligand-Target Pair in BindingDB>
http://www.bindingdb.org/jsp/dbsearch/PrimarySearch_ki.jsp?energyterm=kJ/mole&tag=pol&polymerid=5809&target=ALK+tyrosine+kinase+receptor&column=ki&startPg=0&Increment=50&submit=Search

> <Link to Ligand-Target Pair in BindingDB>
http://www.bindingdb.org/jsp/dbsearch/PrimarySearch_ki.jsp?energyterm=kJ/mole&tag=r21&monomerid=50436862&enzyme=ALK+tyrosine+kinase+receptor&column=ki&startPg=0&Increment=50&submit=Search

> <Ligand HET ID in PDB>


> <PDB ID(s) for Ligand-Target Complex>


> <PubChem CID>
59764418

> <PubChem SID>
175449179

> <ChEBI ID of Ligand>


> <ChEMBL ID of Ligand>
CHEMBL2403845

> <DrugBank ID of Ligand>


> <IUPHAR_GRAC ID of Ligand>


> <KEGG ID of Ligand>


> <ZINC ID of Ligand>
ZINC96272784

> <Number of Protein Chains in Target (>1 implies a multichain complex)>
1

> <BindingDB Target Chain Sequence>
MGAIGLLWLLPLLLSTAAVGSGMGTGQRAGSPAAGPPLQPREPLSYSRLQRKSLAVDFVVPSLFRVYARDLLLPPSSSELKAGRPEARGSLALDCAPLLRLLGPAPGVSWTAGSPAPAEARTLSRVLKGGSVRKLRRAKQLVLELGEEAILEGCVGPPGEAAVGLLQFNLSELFSWWIRQGEGRLRIRLMPEKKASEVGREGRLSAAIRASQPRLLFQIFGTGHSSLESPTNMPSPSPDYFTWNLTWIMKDSFPFLSHRSRYGLECSFDFPCELEYSPPLHDLRNQSWSWRRIPSEEASQMDLLDGPGAERSKEMPRGSFLLLNTSADSKHTILSPWMRSSSEHCTLAVSVHRHLQPSGRYIAQLLPHNEAAREILLMPTPGKHGWTVLQGRIGRPDNPFRVALEYISSGNRSLSAVDFFALKNCSEGTSPGSKMALQSSFTCWNGTVLQLGQACDFHQDCAQGEDESQMCRKLPVGFYCNFEDGFCGWTQGTLSPHTPQWQVRTLKDARFQDHQDHALLLSTTDVPASESATVTSATFPAPIKSSPCELRMSWLIRGVLRGNVSLVLVENKTGKEQGRMVWHVAAYEGLSLWQWMVLPLLDVSDRFWLQMVAWWGQGSRAIVAFDNISISLDCYLTISGEDKILQNTAPKSRNLFERNPNKELKPGENSPRQTPIFDPTVHWLFTTCGASGPHGPTQAQCNNAYQNSNLSVEVGSEGPLKGIQIWKVPATDTYSISGYGAAGGKGGKNTMMRSHGVSVLGIFNLEKDDMLYILVGQQGEDACPSTNQLIQKVCIGENNVIEEEIRVNRSVHEWAGGGGGGGGATYVFKMKDGVPVPLIIAAGGGGRAYGAKTDTFHPERLENNSSVLGLNGNSGAAGGGGGWNDNTSLLWAGKSLQEGATGGHSCPQAMKKWGWETRGGFGGGGGGCSSGGGGGGYIGGNAASNNDPEMDGEDGVSFISPLGILYTPALKVMEGHGEVNIKHYLNCSHCEVDECHMDPESHKVICFCDHGTVLAEDGVSCIVSPTPEPHLPLSLILSVVTSALVAALVLAFSGIMIVYRRKHQELQAMQMELQSPEYKLSKLRTSTIMTDYNPNYCFAGKTSSISDLKEVPRKNITLIRGLGHGAFGEVYEGQVSGMPNDPSPLQVAVKTLPEVCSEQDELDFLMEALIISKFNHQNIVRCIGVSLQSLPRFILLELMAGGDLKSFLRETRPRPSQPSSLAMLDLLHVARDIACGCQYLEENHFIHRDIAARNCLLTCPGPGRVAKIGDFGMARDIYRASYYRKGGCAMLPVKWMPPEAFMEGIFTSKTDTWSFGVLLWEIFSLGYMPYPSKSNQEVLEFVTSGGRMDPPKNCPGPVYRIMTQCWQHQPEDRPNFAIILERIEYCTQDPDVINTALPIEYGPLVEEEEKVPVRPKDPEGVPPLLVSQQAKREEERSPAAPPPLPTTSSGKAAKKPTAAEISVRVPRGPAVEGGHVNMAFSQSNPPSELHKVHGSRNKPTSLWNPTYGSWFTEKPTKKNNPIAKKEPHDRGNLGLEGSCTVPPNVATGRLPGASLLLEPSSLTANMKEVPLFRLRHFPCGNVNYGYQQQGLPLEAATAPGAGHYEDTILKSKNSMNQPGP

> <PDB ID(s) of Target Chain>
2XB7,2XBA,3AOX,5FTO,5FTQ,6E0R,6EBW,6EDL,6MX8

> <UniProt (SwissProt) Recommended Name of Target Chain>
ALK tyrosine kinase receptor

> <UniProt (SwissProt) Entry Name of Target Chain>
ALK_HUMAN

> <UniProt (SwissProt) Primary ID of Target Chain>
Q9UM73

> <UniProt (SwissProt) Secondary ID(s) of Target Chain>
Q4ZFX9,Q53QQ6,Q53RZ4,Q59FI3,Q9Y4K6

> <UniProt (SwissProt) Alternative ID(s) of Target Chain>


> <UniProt (TrEMBL) Submitted Name of Target Chain>


> <UniProt (TrEMBL) Entry Name of Target Chain>


> <UniProt (TrEMBL) Primary ID of Target Chain>


> <UniProt (TrEMBL) Secondary ID(s) of Target Chain>


> <UniProt (TrEMBL) Alternative ID(s) of Target Chain>


$$$$
BindingDB_50436863_mol_1

Vconf v2.0 Academic SN VC001-00000579
 81 84  0  0  0  0  0  0  0  0999 V2000
   -2.5200  -31.5830   -1.0370 O   0  0  0  0  0  0  0  0  0  0  0
   -1.7100  -32.4520   -2.0940 S   0  0  0  0  0  0  0  0  0  0  0
   -2.2870  -33.8570   -2.5640 O   0  0  0  0  0  0  0  0  0  0  0
   -0.0400  -32.6650   -1.6330 C   0  0  0  0  0  0  0  0  0  0  0
    0.6130  -33.8140   -2.1230 C   0  0  0  0  0  0  0  0  0  0  0
    1.9530  -34.0700   -1.7990 C   0  0  0  0  0  0  0  0  0  0  0
    2.6540  -33.1690   -0.9880 C   0  0  0  0  0  0  0  0  0  0  0
    2.0170  -32.0110   -0.5140 C   0  0  0  0  0  0  0  0  0  0  0
    0.6620  -31.7310   -0.8280 C   0  0  0  0  0  0  0  0  0  0  0
   -0.0220  -30.6110   -0.4250 N   0  0  0  0  0  0  0  0  0  0  0
    0.3790  -29.5370    0.3230 C   0  0  0  0  0  0  0  0  0  0  0
    1.6340  -29.4380    0.8240 N   0  0  0  0  0  0  0  0  0  0  0
    2.0720  -28.3960    1.5700 C   0  0  0  0  0  0  0  0  0  0  0
    1.2130  -27.3860    1.8270 N   0  0  0  0  0  0  0  0  0  0  0
   -0.0580  -27.4030    1.3630 C   0  0  0  0  0  0  0  0  0  0  0
   -0.5250  -28.4860    0.5970 C   0  0  0  0  0  0  0  0  0  0  0
   -1.7160  -31.4980   -3.6290 C   0  0  0  0  0  0  0  0  0  0  0
   -3.1630  -31.3290   -4.1130 C   0  0  0  0  0  0  0  0  0  0  0
   -1.0660  -30.1210   -3.4340 C   0  0  0  0  0  0  0  0  0  0  0
   -2.1310  -28.4730    0.0570 Cl  0  0  0  0  0  0  0  0  0  0  0
    3.3290  -28.3390    2.0670 N   0  0  0  0  0  0  0  0  0  0  0
    4.2600  -29.3000    1.8580 C   0  0  0  0  0  0  0  0  0  0  0
    4.6230  -30.1690    2.9050 C   0  0  0  0  0  0  0  0  0  0  0
    5.5620  -31.1870    2.6480 C   0  0  0  0  0  0  0  0  0  0  0
    6.1720  -31.3350    1.3840 C   0  0  0  0  0  0  0  0  0  0  0
    5.8110  -30.4430    0.3440 C   0  0  0  0  0  0  0  0  0  0  0
    4.8580  -29.4360    0.5920 C   0  0  0  0  0  0  0  0  0  0  0
    4.0190  -29.9920    4.1220 O   0  0  0  0  0  0  0  0  0  0  0
    4.3520  -30.7290    5.3070 C   0  0  0  0  0  0  0  0  0  0  0
    7.1690  -32.4220    1.1850 C   0  0  0  0  0  0  0  0  0  0  0
    8.3480  -32.3080    2.1720 C   0  0  0  0  0  0  0  0  0  0  0
    9.3460  -33.4490    1.9330 C   0  0  0  0  0  0  0  0  0  0  0
    8.6850  -34.7610    2.0990 N   0  0  0  0  0  0  0  0  0  0  0
    7.5940  -34.9070    1.1110 C   0  0  0  0  0  0  0  0  0  0  0
    6.5290  -33.8180    1.3170 C   0  0  0  0  0  0  0  0  0  0  0
    5.7080  -30.2840    5.8840 C   0  0  0  0  0  0  0  0  0  0  0
    3.2510  -30.4700    6.3430 C   0  0  0  0  0  0  0  0  0  0  0
    6.4060  -30.5470   -1.0010 C   0  0  0  0  0  0  0  0  0  0  0
    9.6580  -35.8620    1.9380 C   0  0  0  0  0  0  0  0  0  0  0
   10.5650  -35.9950    3.1700 C   0  0  0  0  0  0  0  0  0  0  0
   11.3570  -37.1680    3.0490 O   0  0  0  0  0  0  0  0  0  0  0
    0.1090  -34.4720   -2.7180 H   0  0  0  0  0  0  0  0  0  0  0
    2.4150  -34.9100   -2.1520 H   0  0  0  0  0  0  0  0  0  0  0
    3.6300  -33.3490   -0.7480 H   0  0  0  0  0  0  0  0  0  0  0
    2.5680  -31.3840    0.0630 H   0  0  0  0  0  0  0  0  0  0  0
   -0.9400  -30.5640   -0.7260 H   0  0  0  0  0  0  0  0  0  0  0
   -0.6730  -26.6160    1.5780 H   0  0  0  0  0  0  0  0  0  0  0
   -1.1560  -32.0490   -4.3840 H   0  0  0  0  0  0  0  0  0  0  0
   -3.1800  -30.7750   -5.0510 H   0  0  0  0  0  0  0  0  0  0  0
   -3.6090  -32.3110   -4.2690 H   0  0  0  0  0  0  0  0  0  0  0
   -3.7420  -30.7890   -3.3630 H   0  0  0  0  0  0  0  0  0  0  0
   -1.1140  -29.5550   -4.3640 H   0  0  0  0  0  0  0  0  0  0  0
   -1.5910  -29.5740   -2.6520 H   0  0  0  0  0  0  0  0  0  0  0
   -0.0210  -30.2420   -3.1500 H   0  0  0  0  0  0  0  0  0  0  0
    3.5610  -27.5870    2.6320 H   0  0  0  0  0  0  0  0  0  0  0
    5.8150  -31.8310    3.3950 H   0  0  0  0  0  0  0  0  0  0  0
    4.5890  -28.7970   -0.1580 H   0  0  0  0  0  0  0  0  0  0  0
    4.3720  -31.8010    5.0980 H   0  0  0  0  0  0  0  0  0  0  0
    7.5960  -32.3660    0.1850 H   0  0  0  0  0  0  0  0  0  0  0
    7.9950  -32.3720    3.2020 H   0  0  0  0  0  0  0  0  0  0  0
    8.8570  -31.3540    2.0280 H   0  0  0  0  0  0  0  0  0  0  0
    9.7620  -33.3580    0.9280 H   0  0  0  0  0  0  0  0  0  0  0
   10.1500  -33.3420    2.6590 H   0  0  0  0  0  0  0  0  0  0  0
    7.1150  -35.8790    1.2380 H   0  0  0  0  0  0  0  0  0  0  0
    7.9910  -34.8410    0.0960 H   0  0  0  0  0  0  0  0  0  0  0
    6.0890  -33.9430    2.3070 H   0  0  0  0  0  0  0  0  0  0  0
    5.7490  -33.9360    0.5630 H   0  0  0  0  0  0  0  0  0  0  0
    5.9330  -30.8650    6.7790 H   0  0  0  0  0  0  0  0  0  0  0
    6.5010  -30.4410    5.1540 H   0  0  0  0  0  0  0  0  0  0  0
    5.6670  -29.2260    6.1430 H   0  0  0  0  0  0  0  0  0  0  0
    3.4490  -31.0540    7.2440 H   0  0  0  0  0  0  0  0  0  0  0
    3.2230  -29.4090    6.5970 H   0  0  0  0  0  0  0  0  0  0  0
    2.2860  -30.7650    5.9300 H   0  0  0  0  0  0  0  0  0  0  0
    5.9930  -29.8020   -1.6820 H   0  0  0  0  0  0  0  0  0  0  0
    7.4840  -30.3940   -0.9350 H   0  0  0  0  0  0  0  0  0  0  0
    6.2080  -31.5360   -1.4140 H   0  0  0  0  0  0  0  0  0  0  0
    9.1230  -36.8060    1.8240 H   0  0  0  0  0  0  0  0  0  0  0
   10.2710  -35.7020    1.0490 H   0  0  0  0  0  0  0  0  0  0  0
   11.2230  -35.1310    3.2530 H   0  0  0  0  0  0  0  0  0  0  0
    9.9510  -36.0700    4.0680 H   0  0  0  0  0  0  0  0  0  0  0
   11.9440  -37.3420    3.8140 H   0  0  0  0  0  0  0  0  0  0  0
  1  2  2  0  0  0  0
  2  3  2  0  0  0  0
  2  4  1  0  0  0  0
  2 17  1  0  0  0  0
  4  5  2  0  0  0  0
  4  9  1  0  0  0  0
  5  6  1  0  0  0  0
  5 42  1  0  0  0  0
  6  7  2  0  0  0  0
  6 43  1  0  0  0  0
  7  8  1  0  0  0  0
  7 44  1  0  0  0  0
  8  9  2  0  0  0  0
  8 45  1  0  0  0  0
  9 10  1  0  0  0  0
 10 11  1  0  0  0  0
 10 46  1  0  0  0  0
 11 12  2  0  0  0  0
 11 16  1  0  0  0  0
 12 13  1  0  0  0  0
 13 14  2  0  0  0  0
 13 21  1  0  0  0  0
 14 15  1  0  0  0  0
 15 16  2  0  0  0  0
 15 47  1  0  0  0  0
 16 20  1  0  0  0  0
 17 18  1  0  0  0  0
 17 19  1  0  0  0  0
 17 48  1  0  0  0  0
 18 49  1  0  0  0  0
 18 50  1  0  0  0  0
 18 51  1  0  0  0  0
 19 52  1  0  0  0  0
 19 53  1  0  0  0  0
 19 54  1  0  0  0  0
 21 22  1  0  0  0  0
 21 55  1  0  0  0  0
 22 23  2  0  0  0  0
 22 27  1  0  0  0  0
 23 24  1  0  0  0  0
 23 28  1  0  0  0  0
 24 25  2  0  0  0  0
 24 56  1  0  0  0  0
 25 26  1  0  0  0  0
 25 30  1  0  0  0  0
 26 27  2  0  0  0  0
 26 38  1  0  0  0  0
 27 57  1  0  0  0  0
 28 29  1  0  0  0  0
 29 36  1  0  0  0  0
 29 37  1  0  0  0  0
 29 58  1  0  0  0  0
 30 31  1  0  0  0  0
 30 35  1  0  0  0  0
 30 59  1  0  0  0  0
 31 32  1  0  0  0  0
 31 60  1  0  0  0  0
 31 61  1  0  0  0  0
 32 33  1  0  0  0  0
 32 62  1  0  0  0  0
 32 63  1  0  0  0  0
 33 34  1  0  0  0  0
 33 39  1  0  0  0  0
 34 35  1  0  0  0  0
 34 64  1  0  0  0  0
 34 65  1  0  0  0  0
 35 66  1  0  0  0  0
 35 67  1  0  0  0  0
 36 68  1  0  0  0  0
 36 69  1  0  0  0  0
 36 70  1  0  0  0  0
 37 71  1  0  0  0  0
 37 72  1  0  0  0  0
 37 73  1  0  0  0  0
 38 74  1  0  0  0  0
 38 75  1  0  0  0  0
 38 76  1  0  0  0  0
 39 40  1  0  0  0  0
 39 77  1  0  0  0  0
 39 78  1  0  0  0  0
 40 41  1  0  0  0  0
 40 79  1  0  0  0  0
 40 80  1  0  0  0  0
 41 81  1  0  0  0  0
M  END
> <From>
www.bindingDB.org

> <BindingDB Reactant_set_id>
51069478

> <Ligand InChI>
InChI=1S/C30H40ClN5O4S/c1-19(2)40-27-17-23(22-10-12-36(13-11-22)14-15-37)21(5)16-26(27)34-30-32-18-24(31)29(35-30)33-25-8-6-7-9-28(25)41(38,39)20(3)4/h6-9,16-20,22,37H,10-15H2,1-5H3,(H2,32,33,34,35)

> <Ligand InChI Key>
IFFBVWMQEXWQPC-UHFFFAOYSA-N

> <BindingDB MonomerID>
50436863

> <BindingDB Ligand Name>
CHEMBL2403836

> <Target Name Assigned by Curator or DataSource>
ALK tyrosine kinase receptor

> <Target Source Organism According to Curator or DataSource>
Homo sapiens

> <Ki (nM)>


> <IC50 (nM)>
 8.1

> <Kd (nM)>


> <EC50 (nM)>


> <kon (M-1-s-1)>


> <koff (s-1)>


> <pH>


> <Temp C>


> <Curation/DataSource>
ChEMBL

> <Article DOI>
10.1021/jm400402q

> <PMID>
23742252

> <PubChem AID>


> <Patent Number>


> <Authors>
Marsilje, TH; Pei, W; Chen, B; Lu, W; Uno, T; Jin, Y; Jiang, T; Kim, S; Li, N; Warmuth, M; Sarkisova, Y; Sun, F; Steffy, A; Pferdekamper, AC; Li, AG; Joseph, SB; Kim, Y; Liu, B; Tuntland, T; Cui, X; Gray, NS; Steensma, R; Wan, Y; Jiang, J; Chopiuk, G; Li, J; Gordon, WP; Richmond, W; Johnson, K; Chang, J; Groessl, T; He, YQ; Phimister, A; Aycinena, A; Lee, CC; Bursulaya, B; Karanewsky, DS; Seidel, HM; Harris, JL; Michellys, PY

> <Institution>
Genomics Institute of the Novartis Research Foundation 

> <Link to Ligand in BindingDB>
http://www.bindingdb.org/bind/chemsearch/marvin/MolStructure.jsp?monomerid=50436863

> <Link to Ligand-Target Pair in BindingDB>
http://www.bindingdb.org/jsp/dbsearch/PrimarySearch_ki.jsp?energyterm=kJ/mole&tag=pol&polymerid=5809&target=ALK+tyrosine+kinase+receptor&column=ki&startPg=0&Increment=50&submit=Search

> <Link to Ligand-Target Pair in BindingDB>
http://www.bindingdb.org/jsp/dbsearch/PrimarySearch_ki.jsp?energyterm=kJ/mole&tag=r21&monomerid=50436863&enzyme=ALK+tyrosine+kinase+receptor&column=ki&startPg=0&Increment=50&submit=Search

> <Ligand HET ID in PDB>


> <PDB ID(s) for Ligand-Target Complex>


> <PubChem CID>
59764460

> <PubChem SID>
175449180

> <ChEBI ID of Ligand>


> <ChEMBL ID of Ligand>
CHEMBL2403836

> <DrugBank ID of Ligand>


> <IUPHAR_GRAC ID of Ligand>


> <KEGG ID of Ligand>


> <ZINC ID of Ligand>
ZINC96272785

> <Number of Protein Chains in Target (>1 implies a multichain complex)>
1

> <BindingDB Target Chain Sequence>
MGAIGLLWLLPLLLSTAAVGSGMGTGQRAGSPAAGPPLQPREPLSYSRLQRKSLAVDFVVPSLFRVYARDLLLPPSSSELKAGRPEARGSLALDCAPLLRLLGPAPGVSWTAGSPAPAEARTLSRVLKGGSVRKLRRAKQLVLELGEEAILEGCVGPPGEAAVGLLQFNLSELFSWWIRQGEGRLRIRLMPEKKASEVGREGRLSAAIRASQPRLLFQIFGTGHSSLESPTNMPSPSPDYFTWNLTWIMKDSFPFLSHRSRYGLECSFDFPCELEYSPPLHDLRNQSWSWRRIPSEEASQMDLLDGPGAERSKEMPRGSFLLLNTSADSKHTILSPWMRSSSEHCTLAVSVHRHLQPSGRYIAQLLPHNEAAREILLMPTPGKHGWTVLQGRIGRPDNPFRVALEYISSGNRSLSAVDFFALKNCSEGTSPGSKMALQSSFTCWNGTVLQLGQACDFHQDCAQGEDESQMCRKLPVGFYCNFEDGFCGWTQGTLSPHTPQWQVRTLKDARFQDHQDHALLLSTTDVPASESATVTSATFPAPIKSSPCELRMSWLIRGVLRGNVSLVLVENKTGKEQGRMVWHVAAYEGLSLWQWMVLPLLDVSDRFWLQMVAWWGQGSRAIVAFDNISISLDCYLTISGEDKILQNTAPKSRNLFERNPNKELKPGENSPRQTPIFDPTVHWLFTTCGASGPHGPTQAQCNNAYQNSNLSVEVGSEGPLKGIQIWKVPATDTYSISGYGAAGGKGGKNTMMRSHGVSVLGIFNLEKDDMLYILVGQQGEDACPSTNQLIQKVCIGENNVIEEEIRVNRSVHEWAGGGGGGGGATYVFKMKDGVPVPLIIAAGGGGRAYGAKTDTFHPERLENNSSVLGLNGNSGAAGGGGGWNDNTSLLWAGKSLQEGATGGHSCPQAMKKWGWETRGGFGGGGGGCSSGGGGGGYIGGNAASNNDPEMDGEDGVSFISPLGILYTPALKVMEGHGEVNIKHYLNCSHCEVDECHMDPESHKVICFCDHGTVLAEDGVSCIVSPTPEPHLPLSLILSVVTSALVAALVLAFSGIMIVYRRKHQELQAMQMELQSPEYKLSKLRTSTIMTDYNPNYCFAGKTSSISDLKEVPRKNITLIRGLGHGAFGEVYEGQVSGMPNDPSPLQVAVKTLPEVCSEQDELDFLMEALIISKFNHQNIVRCIGVSLQSLPRFILLELMAGGDLKSFLRETRPRPSQPSSLAMLDLLHVARDIACGCQYLEENHFIHRDIAARNCLLTCPGPGRVAKIGDFGMARDIYRASYYRKGGCAMLPVKWMPPEAFMEGIFTSKTDTWSFGVLLWEIFSLGYMPYPSKSNQEVLEFVTSGGRMDPPKNCPGPVYRIMTQCWQHQPEDRPNFAIILERIEYCTQDPDVINTALPIEYGPLVEEEEKVPVRPKDPEGVPPLLVSQQAKREEERSPAAPPPLPTTSSGKAAKKPTAAEISVRVPRGPAVEGGHVNMAFSQSNPPSELHKVHGSRNKPTSLWNPTYGSWFTEKPTKKNNPIAKKEPHDRGNLGLEGSCTVPPNVATGRLPGASLLLEPSSLTANMKEVPLFRLRHFPCGNVNYGYQQQGLPLEAATAPGAGHYEDTILKSKNSMNQPGP

> <PDB ID(s) of Target Chain>
2XB7,2XBA,3AOX,5FTO,5FTQ,6E0R,6EBW,6EDL,6MX8

> <UniProt (SwissProt) Recommended Name of Target Chain>
ALK tyrosine kinase receptor

> <UniProt (SwissProt) Entry Name of Target Chain>
ALK_HUMAN

> <UniProt (SwissProt) Primary ID of Target Chain>
Q9UM73

> <UniProt (SwissProt) Secondary ID(s) of Target Chain>
Q4ZFX9,Q53QQ6,Q53RZ4,Q59FI3,Q9Y4K6

> <UniProt (SwissProt) Alternative ID(s) of Target Chain>


> <UniProt (TrEMBL) Submitted Name of Target Chain>


> <UniProt (TrEMBL) Entry Name of Target Chain>


> <UniProt (TrEMBL) Primary ID of Target Chain>


> <UniProt (TrEMBL) Secondary ID(s) of Target Chain>


> <UniProt (TrEMBL) Alternative ID(s) of Target Chain>


$$$$
BindingDB_50436865_mol_1

Vconf v2.0 Academic SN VC001-00000579
 84 87  0  0  0  0  0  0  0  0999 V2000
   -4.8450  -16.2770    0.1160 O   0  0  0  0  0  0  0  0  0  0  0
   -4.6990  -17.4380   -0.9600 S   0  0  0  0  0  0  0  0  0  0  0
   -5.7740  -18.6120   -0.9680 O   0  0  0  0  0  0  0  0  0  0  0
   -3.1050  -18.1490   -0.9730 C   0  0  0  0  0  0  0  0  0  0  0
   -2.9970  -19.4590   -1.4820 C   0  0  0  0  0  0  0  0  0  0  0
   -1.7540  -20.1020   -1.5570 C   0  0  0  0  0  0  0  0  0  0  0
   -0.6030  -19.4350   -1.1210 C   0  0  0  0  0  0  0  0  0  0  0
   -0.7010  -18.1300   -0.6170 C   0  0  0  0  0  0  0  0  0  0  0
   -1.9460  -17.4550   -0.5380 C   0  0  0  0  0  0  0  0  0  0  0
   -2.1090  -16.1780   -0.0640 N   0  0  0  0  0  0  0  0  0  0  0
   -1.1850  -15.2620    0.3520 C   0  0  0  0  0  0  0  0  0  0  0
    0.1460  -15.4860    0.2650 N   0  0  0  0  0  0  0  0  0  0  0
    1.0930  -14.6000    0.6520 C   0  0  0  0  0  0  0  0  0  0  0
    0.6860  -13.4180    1.1680 N   0  0  0  0  0  0  0  0  0  0  0
   -0.6290  -13.1170    1.2930 C   0  0  0  0  0  0  0  0  0  0  0
   -1.6190  -14.0300    0.8850 C   0  0  0  0  0  0  0  0  0  0  0
   -4.9640  -16.6150   -2.5490 C   0  0  0  0  0  0  0  0  0  0  0
   -3.9590  -15.4710   -2.7490 C   0  0  0  0  0  0  0  0  0  0  0
   -4.8690  -17.6140   -3.7130 C   0  0  0  0  0  0  0  0  0  0  0
    2.4160  -14.8750    0.5430 N   0  0  0  0  0  0  0  0  0  0  0
    2.9160  -16.0430    0.0590 C   0  0  0  0  0  0  0  0  0  0  0
    2.6330  -16.5000   -1.2460 C   0  0  0  0  0  0  0  0  0  0  0
    3.1310  -17.7520   -1.6610 C   0  0  0  0  0  0  0  0  0  0  0
    3.9360  -18.5430   -0.8130 C   0  0  0  0  0  0  0  0  0  0  0
    4.2530  -18.0520    0.4790 C   0  0  0  0  0  0  0  0  0  0  0
    3.7410  -16.8080    0.8990 C   0  0  0  0  0  0  0  0  0  0  0
    1.8460  -15.7130   -2.0410 O   0  0  0  0  0  0  0  0  0  0  0
    1.8020  -15.7870   -3.4690 C   0  0  0  0  0  0  0  0  0  0  0
    4.4110  -19.8700   -1.2940 C   0  0  0  0  0  0  0  0  0  0  0
    3.2400  -20.8460   -1.5240 C   0  0  0  0  0  0  0  0  0  0  0
    3.7770  -22.2100   -1.9870 C   0  0  0  0  0  0  0  0  0  0  0
    4.5640  -22.0710   -3.2320 N   0  0  0  0  0  0  0  0  0  0  0
    5.7150  -21.1730   -3.0040 C   0  0  0  0  0  0  0  0  0  0  0
    5.2380  -19.7720   -2.5910 C   0  0  0  0  0  0  0  0  0  0  0
    0.6220  -14.9230   -3.9320 C   0  0  0  0  0  0  0  0  0  0  0
    3.1080  -15.2600   -4.0870 C   0  0  0  0  0  0  0  0  0  0  0
    5.1060  -18.8180    1.4080 C   0  0  0  0  0  0  0  0  0  0  0
    5.0550  -23.3870   -3.6960 C   0  0  0  0  0  0  0  0  0  0  0
   -3.0500  -13.7090    1.0270 C   0  0  0  0  0  0  0  0  0  0  0
    3.9260  -24.2390   -4.2930 C   0  0  0  0  0  0  0  0  0  0  0
    4.4810  -25.3890   -4.9160 O   0  0  0  0  0  0  0  0  0  0  0
   -3.8320  -19.9480   -1.8060 H   0  0  0  0  0  0  0  0  0  0  0
   -1.6870  -21.0500   -1.9280 H   0  0  0  0  0  0  0  0  0  0  0
    0.3060  -19.8970   -1.1690 H   0  0  0  0  0  0  0  0  0  0  0
    0.1580  -17.6950   -0.2980 H   0  0  0  0  0  0  0  0  0  0  0
   -3.0220  -15.8650   -0.0130 H   0  0  0  0  0  0  0  0  0  0  0
   -0.8990  -12.2170    1.6910 H   0  0  0  0  0  0  0  0  0  0  0
   -5.9680  -16.1910   -2.5420 H   0  0  0  0  0  0  0  0  0  0  0
   -4.1840  -14.9430   -3.6760 H   0  0  0  0  0  0  0  0  0  0  0
   -4.0350  -14.7740   -1.9160 H   0  0  0  0  0  0  0  0  0  0  0
   -2.9430  -15.8640   -2.7980 H   0  0  0  0  0  0  0  0  0  0  0
   -5.1530  -17.1220   -4.6430 H   0  0  0  0  0  0  0  0  0  0  0
   -3.8500  -17.9900   -3.8030 H   0  0  0  0  0  0  0  0  0  0  0
   -5.5470  -18.4480   -3.5310 H   0  0  0  0  0  0  0  0  0  0  0
    3.0410  -14.2190    0.8860 H   0  0  0  0  0  0  0  0  0  0  0
    2.8990  -18.1010   -2.5900 H   0  0  0  0  0  0  0  0  0  0  0
    3.9590  -16.4630    1.8350 H   0  0  0  0  0  0  0  0  0  0  0
    1.6230  -16.8100   -3.8030 H   0  0  0  0  0  0  0  0  0  0  0
    5.0590  -20.3310   -0.5490 H   0  0  0  0  0  0  0  0  0  0  0
    2.5630  -20.4570   -2.2860 H   0  0  0  0  0  0  0  0  0  0  0
    2.6870  -20.9830   -0.5930 H   0  0  0  0  0  0  0  0  0  0  0
    4.3970  -22.6390   -1.1980 H   0  0  0  0  0  0  0  0  0  0  0
    2.9230  -22.8650   -2.1590 H   0  0  0  0  0  0  0  0  0  0  0
    6.3630  -21.5790   -2.2250 H   0  0  0  0  0  0  0  0  0  0  0
    6.2920  -21.0780   -3.9250 H   0  0  0  0  0  0  0  0  0  0  0
    4.6350  -19.3570   -3.4000 H   0  0  0  0  0  0  0  0  0  0  0
    6.1070  -19.1330   -2.4280 H   0  0  0  0  0  0  0  0  0  0  0
    0.5580  -14.9340   -5.0200 H   0  0  0  0  0  0  0  0  0  0  0
   -0.3030  -15.3220   -3.5130 H   0  0  0  0  0  0  0  0  0  0  0
    0.7570  -13.8970   -3.5880 H   0  0  0  0  0  0  0  0  0  0  0
    3.0330  -15.2800   -5.1740 H   0  0  0  0  0  0  0  0  0  0  0
    3.2850  -14.2350   -3.7570 H   0  0  0  0  0  0  0  0  0  0  0
    3.9440  -15.8850   -3.7760 H   0  0  0  0  0  0  0  0  0  0  0
    5.2150  -18.3070    2.3660 H   0  0  0  0  0  0  0  0  0  0  0
    4.6640  -19.7980    1.5910 H   0  0  0  0  0  0  0  0  0  0  0
    6.0960  -18.9440    0.9690 H   0  0  0  0  0  0  0  0  0  0  0
    5.7990  -23.2380   -4.4800 H   0  0  0  0  0  0  0  0  0  0  0
    5.5240  -23.9290   -2.8730 H   0  0  0  0  0  0  0  0  0  0  0
   -3.1920  -12.7230    1.4710 H   0  0  0  0  0  0  0  0  0  0  0
   -3.5270  -13.7210    0.0470 H   0  0  0  0  0  0  0  0  0  0  0
   -3.5290  -14.4510    1.6670 H   0  0  0  0  0  0  0  0  0  0  0
    3.2390  -24.5580   -3.5110 H   0  0  0  0  0  0  0  0  0  0  0
    3.3850  -23.6550   -5.0380 H   0  0  0  0  0  0  0  0  0  0  0
    3.8240  -25.9760   -5.3450 H   0  0  0  0  0  0  0  0  0  0  0
  1  2  2  0  0  0  0
  2  3  2  0  0  0  0
  2  4  1  0  0  0  0
  2 17  1  0  0  0  0
  4  5  2  0  0  0  0
  4  9  1  0  0  0  0
  5  6  1  0  0  0  0
  5 42  1  0  0  0  0
  6  7  2  0  0  0  0
  6 43  1  0  0  0  0
  7  8  1  0  0  0  0
  7 44  1  0  0  0  0
  8  9  2  0  0  0  0
  8 45  1  0  0  0  0
  9 10  1  0  0  0  0
 10 11  1  0  0  0  0
 10 46  1  0  0  0  0
 11 12  2  0  0  0  0
 11 16  1  0  0  0  0
 12 13  1  0  0  0  0
 13 14  2  0  0  0  0
 13 20  1  0  0  0  0
 14 15  1  0  0  0  0
 15 16  2  0  0  0  0
 15 47  1  0  0  0  0
 16 39  1  0  0  0  0
 17 18  1  0  0  0  0
 17 19  1  0  0  0  0
 17 48  1  0  0  0  0
 18 49  1  0  0  0  0
 18 50  1  0  0  0  0
 18 51  1  0  0  0  0
 19 52  1  0  0  0  0
 19 53  1  0  0  0  0
 19 54  1  0  0  0  0
 20 21  1  0  0  0  0
 20 55  1  0  0  0  0
 21 22  2  0  0  0  0
 21 26  1  0  0  0  0
 22 23  1  0  0  0  0
 22 27  1  0  0  0  0
 23 24  2  0  0  0  0
 23 56  1  0  0  0  0
 24 25  1  0  0  0  0
 24 29  1  0  0  0  0
 25 26  2  0  0  0  0
 25 37  1  0  0  0  0
 26 57  1  0  0  0  0
 27 28  1  0  0  0  0
 28 35  1  0  0  0  0
 28 36  1  0  0  0  0
 28 58  1  0  0  0  0
 29 30  1  0  0  0  0
 29 34  1  0  0  0  0
 29 59  1  0  0  0  0
 30 31  1  0  0  0  0
 30 60  1  0  0  0  0
 30 61  1  0  0  0  0
 31 32  1  0  0  0  0
 31 62  1  0  0  0  0
 31 63  1  0  0  0  0
 32 33  1  0  0  0  0
 32 38  1  0  0  0  0
 33 34  1  0  0  0  0
 33 64  1  0  0  0  0
 33 65  1  0  0  0  0
 34 66  1  0  0  0  0
 34 67  1  0  0  0  0
 35 68  1  0  0  0  0
 35 69  1  0  0  0  0
 35 70  1  0  0  0  0
 36 71  1  0  0  0  0
 36 72  1  0  0  0  0
 36 73  1  0  0  0  0
 37 74  1  0  0  0  0
 37 75  1  0  0  0  0
 37 76  1  0  0  0  0
 38 40  1  0  0  0  0
 38 77  1  0  0  0  0
 38 78  1  0  0  0  0
 39 79  1  0  0  0  0
 39 80  1  0  0  0  0
 39 81  1  0  0  0  0
 40 41  1  0  0  0  0
 40 82  1  0  0  0  0
 40 83  1  0  0  0  0
 41 84  1  0  0  0  0
M  END
> <From>
www.bindingDB.org

> <BindingDB Reactant_set_id>
51069521

> <Ligand InChI>
InChI=1S/C31H43N5O4S/c1-20(2)40-28-18-25(24-11-13-36(14-12-24)15-16-37)22(5)17-27(28)34-31-32-19-23(6)30(35-31)33-26-9-7-8-10-29(26)41(38,39)21(3)4/h7-10,17-21,24,37H,11-16H2,1-6H3,(H2,32,33,34,35)

> <Ligand InChI Key>
UKUFMIUQNWAMIB-UHFFFAOYSA-N

> <BindingDB MonomerID>
50436865

> <BindingDB Ligand Name>
CHEMBL2403828

> <Target Name Assigned by Curator or DataSource>
ALK tyrosine kinase receptor

> <Target Source Organism According to Curator or DataSource>
Homo sapiens

> <Ki (nM)>


> <IC50 (nM)>
 64

> <Kd (nM)>


> <EC50 (nM)>


> <kon (M-1-s-1)>


> <koff (s-1)>


> <pH>


> <Temp C>


> <Curation/DataSource>
ChEMBL

> <Article DOI>
10.1021/jm400402q

> <PMID>
23742252

> <PubChem AID>


> <Patent Number>


> <Authors>
Marsilje, TH; Pei, W; Chen, B; Lu, W; Uno, T; Jin, Y; Jiang, T; Kim, S; Li, N; Warmuth, M; Sarkisova, Y; Sun, F; Steffy, A; Pferdekamper, AC; Li, AG; Joseph, SB; Kim, Y; Liu, B; Tuntland, T; Cui, X; Gray, NS; Steensma, R; Wan, Y; Jiang, J; Chopiuk, G; Li, J; Gordon, WP; Richmond, W; Johnson, K; Chang, J; Groessl, T; He, YQ; Phimister, A; Aycinena, A; Lee, CC; Bursulaya, B; Karanewsky, DS; Seidel, HM; Harris, JL; Michellys, PY

> <Institution>
Genomics Institute of the Novartis Research Foundation 

> <Link to Ligand in BindingDB>
http://www.bindingdb.org/bind/chemsearch/marvin/MolStructure.jsp?monomerid=50436865

> <Link to Ligand-Target Pair in BindingDB>
http://www.bindingdb.org/jsp/dbsearch/PrimarySearch_ki.jsp?energyterm=kJ/mole&tag=pol&polymerid=5809&target=ALK+tyrosine+kinase+receptor&column=ki&startPg=0&Increment=50&submit=Search

> <Link to Ligand-Target Pair in BindingDB>
http://www.bindingdb.org/jsp/dbsearch/PrimarySearch_ki.jsp?energyterm=kJ/mole&tag=r21&monomerid=50436865&enzyme=ALK+tyrosine+kinase+receptor&column=ki&startPg=0&Increment=50&submit=Search

> <Ligand HET ID in PDB>


> <PDB ID(s) for Ligand-Target Complex>


> <PubChem CID>
71764397

> <PubChem SID>
175449182

> <ChEBI ID of Ligand>


> <ChEMBL ID of Ligand>
CHEMBL2403828

> <DrugBank ID of Ligand>


> <IUPHAR_GRAC ID of Ligand>


> <KEGG ID of Ligand>


> <ZINC ID of Ligand>
ZINC96272787

> <Number of Protein Chains in Target (>1 implies a multichain complex)>
1

> <BindingDB Target Chain Sequence>
MGAIGLLWLLPLLLSTAAVGSGMGTGQRAGSPAAGPPLQPREPLSYSRLQRKSLAVDFVVPSLFRVYARDLLLPPSSSELKAGRPEARGSLALDCAPLLRLLGPAPGVSWTAGSPAPAEARTLSRVLKGGSVRKLRRAKQLVLELGEEAILEGCVGPPGEAAVGLLQFNLSELFSWWIRQGEGRLRIRLMPEKKASEVGREGRLSAAIRASQPRLLFQIFGTGHSSLESPTNMPSPSPDYFTWNLTWIMKDSFPFLSHRSRYGLECSFDFPCELEYSPPLHDLRNQSWSWRRIPSEEASQMDLLDGPGAERSKEMPRGSFLLLNTSADSKHTILSPWMRSSSEHCTLAVSVHRHLQPSGRYIAQLLPHNEAAREILLMPTPGKHGWTVLQGRIGRPDNPFRVALEYISSGNRSLSAVDFFALKNCSEGTSPGSKMALQSSFTCWNGTVLQLGQACDFHQDCAQGEDESQMCRKLPVGFYCNFEDGFCGWTQGTLSPHTPQWQVRTLKDARFQDHQDHALLLSTTDVPASESATVTSATFPAPIKSSPCELRMSWLIRGVLRGNVSLVLVENKTGKEQGRMVWHVAAYEGLSLWQWMVLPLLDVSDRFWLQMVAWWGQGSRAIVAFDNISISLDCYLTISGEDKILQNTAPKSRNLFERNPNKELKPGENSPRQTPIFDPTVHWLFTTCGASGPHGPTQAQCNNAYQNSNLSVEVGSEGPLKGIQIWKVPATDTYSISGYGAAGGKGGKNTMMRSHGVSVLGIFNLEKDDMLYILVGQQGEDACPSTNQLIQKVCIGENNVIEEEIRVNRSVHEWAGGGGGGGGATYVFKMKDGVPVPLIIAAGGGGRAYGAKTDTFHPERLENNSSVLGLNGNSGAAGGGGGWNDNTSLLWAGKSLQEGATGGHSCPQAMKKWGWETRGGFGGGGGGCSSGGGGGGYIGGNAASNNDPEMDGEDGVSFISPLGILYTPALKVMEGHGEVNIKHYLNCSHCEVDECHMDPESHKVICFCDHGTVLAEDGVSCIVSPTPEPHLPLSLILSVVTSALVAALVLAFSGIMIVYRRKHQELQAMQMELQSPEYKLSKLRTSTIMTDYNPNYCFAGKTSSISDLKEVPRKNITLIRGLGHGAFGEVYEGQVSGMPNDPSPLQVAVKTLPEVCSEQDELDFLMEALIISKFNHQNIVRCIGVSLQSLPRFILLELMAGGDLKSFLRETRPRPSQPSSLAMLDLLHVARDIACGCQYLEENHFIHRDIAARNCLLTCPGPGRVAKIGDFGMARDIYRASYYRKGGCAMLPVKWMPPEAFMEGIFTSKTDTWSFGVLLWEIFSLGYMPYPSKSNQEVLEFVTSGGRMDPPKNCPGPVYRIMTQCWQHQPEDRPNFAIILERIEYCTQDPDVINTALPIEYGPLVEEEEKVPVRPKDPEGVPPLLVSQQAKREEERSPAAPPPLPTTSSGKAAKKPTAAEISVRVPRGPAVEGGHVNMAFSQSNPPSELHKVHGSRNKPTSLWNPTYGSWFTEKPTKKNNPIAKKEPHDRGNLGLEGSCTVPPNVATGRLPGASLLLEPSSLTANMKEVPLFRLRHFPCGNVNYGYQQQGLPLEAATAPGAGHYEDTILKSKNSMNQPGP

> <PDB ID(s) of Target Chain>
2XB7,2XBA,3AOX,5FTO,5FTQ,6E0R,6EBW,6EDL,6MX8

> <UniProt (SwissProt) Recommended Name of Target Chain>
ALK tyrosine kinase receptor

> <UniProt (SwissProt) Entry Name of Target Chain>
ALK_HUMAN

> <UniProt (SwissProt) Primary ID of Target Chain>
Q9UM73

> <UniProt (SwissProt) Secondary ID(s) of Target Chain>
Q4ZFX9,Q53QQ6,Q53RZ4,Q59FI3,Q9Y4K6

> <UniProt (SwissProt) Alternative ID(s) of Target Chain>


> <UniProt (TrEMBL) Submitted Name of Target Chain>


> <UniProt (TrEMBL) Entry Name of Target Chain>


> <UniProt (TrEMBL) Primary ID of Target Chain>


> <UniProt (TrEMBL) Secondary ID(s) of Target Chain>


> <UniProt (TrEMBL) Alternative ID(s) of Target Chain>


$$$$
BindingDB_50436866_mol_1

Vconf v2.0 Academic SN VC001-00000579
 92 96  0  0  0  0  0  0  0  0999 V2000
   24.6460  -32.0210   -1.0420 O   0  0  0  0  0  0  0  0  0  0  0
   25.8970  -32.2500   -1.9970 S   0  0  0  0  0  0  0  0  0  0  0
   25.7300  -32.8750   -3.4510 O   0  0  0  0  0  0  0  0  0  0  0
   27.1030  -33.1320   -1.1020 C   0  0  0  0  0  0  0  0  0  0  0
   27.7560  -34.2040   -1.7420 C   0  0  0  0  0  0  0  0  0  0  0
   28.7590  -34.9250   -1.0790 C   0  0  0  0  0  0  0  0  0  0  0
   29.1100  -34.5790    0.2330 C   0  0  0  0  0  0  0  0  0  0  0
   28.4650  -33.5100    0.8740 C   0  0  0  0  0  0  0  0  0  0  0
   27.4530  -32.7650    0.2200 C   0  0  0  0  0  0  0  0  0  0  0
   26.7630  -31.7170    0.7680 N   0  0  0  0  0  0  0  0  0  0  0
   26.9350  -31.0680    1.9570 C   0  0  0  0  0  0  0  0  0  0  0
   27.9750  -31.3480    2.7780 N   0  0  0  0  0  0  0  0  0  0  0
   28.1930  -30.7210    3.9590 C   0  0  0  0  0  0  0  0  0  0  0
   27.3210  -29.7660    4.3490 N   0  0  0  0  0  0  0  0  0  0  0
   26.2570  -29.4220    3.5840 C   0  0  0  0  0  0  0  0  0  0  0
   26.0330  -30.0550    2.3480 C   0  0  0  0  0  0  0  0  0  0  0
   26.5520  -30.5870   -2.2690 C   0  0  0  0  0  0  0  0  0  0  0
   27.8700  -30.6450   -3.0570 C   0  0  0  0  0  0  0  0  0  0  0
   25.5150  -29.7500   -3.0290 C   0  0  0  0  0  0  0  0  0  0  0
   24.7100  -29.5790    1.4010 Cl  0  0  0  0  0  0  0  0  0  0  0
   29.2610  -31.0120    4.7390 N   0  0  0  0  0  0  0  0  0  0  0
   30.2010  -31.9200    4.3930 C   0  0  0  0  0  0  0  0  0  0  0
   29.9790  -33.3110    4.4960 C   0  0  0  0  0  0  0  0  0  0  0
   30.9500  -34.2000    4.0040 C   0  0  0  0  0  0  0  0  0  0  0
   32.1600  -33.7380    3.4450 C   0  0  0  0  0  0  0  0  0  0  0
   32.3960  -32.3420    3.3880 C   0  0  0  0  0  0  0  0  0  0  0
   31.4140  -31.4500    3.8620 C   0  0  0  0  0  0  0  0  0  0  0
   28.8410  -33.8560    5.0150 O   0  0  0  0  0  0  0  0  0  0  0
   28.3200  -33.4740    6.2950 C   0  0  0  0  0  0  0  0  0  0  0
   33.1430  -34.7230    2.9160 C   0  0  0  0  0  0  0  0  0  0  0
   33.6340  -35.7080    3.9950 C   0  0  0  0  0  0  0  0  0  0  0
   34.6670  -36.6690    3.3860 C   0  0  0  0  0  0  0  0  0  0  0
   34.0730  -37.4180    2.2560 N   0  0  0  0  0  0  0  0  0  0  0
   33.6340  -36.4870    1.1940 C   0  0  0  0  0  0  0  0  0  0  0
   32.5680  -35.5220    1.7300 C   0  0  0  0  0  0  0  0  0  0  0
   27.0350  -34.2750    6.5400 C   0  0  0  0  0  0  0  0  0  0  0
   29.3290  -33.7580    7.4200 C   0  0  0  0  0  0  0  0  0  0  0
   33.6390  -31.7910    2.8170 C   0  0  0  0  0  0  0  0  0  0  0
   34.9550  -38.4730    1.6980 C   0  0  0  0  0  0  0  0  0  0  0
   36.3740  -37.9910    1.3350 C   0  0  0  0  0  0  0  0  0  0  0
   37.1730  -39.1480    0.7180 C   0  0  0  0  0  0  0  0  0  0  0
   37.2560  -40.2740    1.6700 N   0  0  0  0  0  0  0  0  0  0  0
   35.9050  -40.7770    1.9960 C   0  0  0  0  0  0  0  0  0  0  0
   35.0710  -39.6690    2.6580 C   0  0  0  0  0  0  0  0  0  0  0
   38.0640  -41.3600    1.0870 C   0  0  0  0  0  0  0  0  0  0  0
   27.5010  -34.4580   -2.6960 H   0  0  0  0  0  0  0  0  0  0  0
   29.2300  -35.6980   -1.5500 H   0  0  0  0  0  0  0  0  0  0  0
   29.8310  -35.1080    0.7230 H   0  0  0  0  0  0  0  0  0  0  0
   28.7380  -33.3050    1.8300 H   0  0  0  0  0  0  0  0  0  0  0
   26.0350  -31.3750    0.2270 H   0  0  0  0  0  0  0  0  0  0  0
   25.6220  -28.6930    3.9140 H   0  0  0  0  0  0  0  0  0  0  0
   26.7410  -30.1130   -1.3060 H   0  0  0  0  0  0  0  0  0  0  0
   28.2270  -29.6340   -3.2570 H   0  0  0  0  0  0  0  0  0  0  0
   28.6220  -31.1770   -2.4750 H   0  0  0  0  0  0  0  0  0  0  0
   27.7120  -31.1660   -4.0020 H   0  0  0  0  0  0  0  0  0  0  0
   25.8930  -28.7390   -3.1820 H   0  0  0  0  0  0  0  0  0  0  0
   25.3070  -30.2090   -3.9960 H   0  0  0  0  0  0  0  0  0  0  0
   24.5930  -29.7030   -2.4490 H   0  0  0  0  0  0  0  0  0  0  0
   29.3800  -30.5090    5.5590 H   0  0  0  0  0  0  0  0  0  0  0
   30.7680  -35.2030    4.0540 H   0  0  0  0  0  0  0  0  0  0  0
   31.5720  -30.4430    3.7940 H   0  0  0  0  0  0  0  0  0  0  0
   28.0580  -32.4180    6.3120 H   0  0  0  0  0  0  0  0  0  0  0
   34.0270  -34.2090    2.5430 H   0  0  0  0  0  0  0  0  0  0  0
   32.8010  -36.2900    4.3910 H   0  0  0  0  0  0  0  0  0  0  0
   34.1010  -35.1550    4.8110 H   0  0  0  0  0  0  0  0  0  0  0
   35.5260  -36.0900    3.0470 H   0  0  0  0  0  0  0  0  0  0  0
   34.9890  -37.3580    4.1660 H   0  0  0  0  0  0  0  0  0  0  0
   33.2000  -37.0490    0.3670 H   0  0  0  0  0  0  0  0  0  0  0
   34.4830  -35.9120    0.8210 H   0  0  0  0  0  0  0  0  0  0  0
   31.6960  -36.0970    2.0430 H   0  0  0  0  0  0  0  0  0  0  0
   32.2800  -34.8370    0.9310 H   0  0  0  0  0  0  0  0  0  0  0
   26.6000  -33.9890    7.4990 H   0  0  0  0  0  0  0  0  0  0  0
   26.3200  -34.0640    5.7450 H   0  0  0  0  0  0  0  0  0  0  0
   27.2610  -35.3420    6.5470 H   0  0  0  0  0  0  0  0  0  0  0
   28.8840  -33.5130    8.3840 H   0  0  0  0  0  0  0  0  0  0  0
   29.6080  -34.8110    7.4080 H   0  0  0  0  0  0  0  0  0  0  0
   30.2210  -33.1490    7.2800 H   0  0  0  0  0  0  0  0  0  0  0
   33.6520  -30.7010    2.8590 H   0  0  0  0  0  0  0  0  0  0  0
   34.4970  -32.1650    3.3780 H   0  0  0  0  0  0  0  0  0  0  0
   33.7300  -32.0960    1.7740 H   0  0  0  0  0  0  0  0  0  0  0
   34.4870  -38.8500    0.7860 H   0  0  0  0  0  0  0  0  0  0  0
   36.8930  -37.6490    2.2300 H   0  0  0  0  0  0  0  0  0  0  0
   36.3180  -37.1740    0.6150 H   0  0  0  0  0  0  0  0  0  0  0
   36.6940  -39.4680   -0.2090 H   0  0  0  0  0  0  0  0  0  0  0
   38.1780  -38.7910    0.4880 H   0  0  0  0  0  0  0  0  0  0  0
   35.9850  -41.6130    2.6920 H   0  0  0  0  0  0  0  0  0  0  0
   35.4000  -41.1180    1.0900 H   0  0  0  0  0  0  0  0  0  0  0
   35.5580  -39.3660    3.5840 H   0  0  0  0  0  0  0  0  0  0  0
   34.0750  -40.0520    2.8840 H   0  0  0  0  0  0  0  0  0  0  0
   38.1400  -42.1840    1.7980 H   0  0  0  0  0  0  0  0  0  0  0
   37.6090  -41.7240    0.1650 H   0  0  0  0  0  0  0  0  0  0  0
   39.0690  -40.9960    0.8700 H   0  0  0  0  0  0  0  0  0  0  0
  1  2  2  0  0  0  0
  2  3  2  0  0  0  0
  2  4  1  0  0  0  0
  2 17  1  0  0  0  0
  4  5  2  0  0  0  0
  4  9  1  0  0  0  0
  5  6  1  0  0  0  0
  5 46  1  0  0  0  0
  6  7  2  0  0  0  0
  6 47  1  0  0  0  0
  7  8  1  0  0  0  0
  7 48  1  0  0  0  0
  8  9  2  0  0  0  0
  8 49  1  0  0  0  0
  9 10  1  0  0  0  0
 10 11  1  0  0  0  0
 10 50  1  0  0  0  0
 11 12  2  0  0  0  0
 11 16  1  0  0  0  0
 12 13  1  0  0  0  0
 13 14  2  0  0  0  0
 13 21  1  0  0  0  0
 14 15  1  0  0  0  0
 15 16  2  0  0  0  0
 15 51  1  0  0  0  0
 16 20  1  0  0  0  0
 17 18  1  0  0  0  0
 17 19  1  0  0  0  0
 17 52  1  0  0  0  0
 18 53  1  0  0  0  0
 18 54  1  0  0  0  0
 18 55  1  0  0  0  0
 19 56  1  0  0  0  0
 19 57  1  0  0  0  0
 19 58  1  0  0  0  0
 21 22  1  0  0  0  0
 21 59  1  0  0  0  0
 22 23  2  0  0  0  0
 22 27  1  0  0  0  0
 23 24  1  0  0  0  0
 23 28  1  0  0  0  0
 24 25  2  0  0  0  0
 24 60  1  0  0  0  0
 25 26  1  0  0  0  0
 25 30  1  0  0  0  0
 26 27  2  0  0  0  0
 26 38  1  0  0  0  0
 27 61  1  0  0  0  0
 28 29  1  0  0  0  0
 29 36  1  0  0  0  0
 29 37  1  0  0  0  0
 29 62  1  0  0  0  0
 30 31  1  0  0  0  0
 30 35  1  0  0  0  0
 30 63  1  0  0  0  0
 31 32  1  0  0  0  0
 31 64  1  0  0  0  0
 31 65  1  0  0  0  0
 32 33  1  0  0  0  0
 32 66  1  0  0  0  0
 32 67  1  0  0  0  0
 33 34  1  0  0  0  0
 33 39  1  0  0  0  0
 34 35  1  0  0  0  0
 34 68  1  0  0  0  0
 34 69  1  0  0  0  0
 35 70  1  0  0  0  0
 35 71  1  0  0  0  0
 36 72  1  0  0  0  0
 36 73  1  0  0  0  0
 36 74  1  0  0  0  0
 37 75  1  0  0  0  0
 37 76  1  0  0  0  0
 37 77  1  0  0  0  0
 38 78  1  0  0  0  0
 38 79  1  0  0  0  0
 38 80  1  0  0  0  0
 39 40  1  0  0  0  0
 39 44  1  0  0  0  0
 39 81  1  0  0  0  0
 40 41  1  0  0  0  0
 40 82  1  0  0  0  0
 40 83  1  0  0  0  0
 41 42  1  0  0  0  0
 41 84  1  0  0  0  0
 41 85  1  0  0  0  0
 42 43  1  0  0  0  0
 42 45  1  0  0  0  0
 43 44  1  0  0  0  0
 43 86  1  0  0  0  0
 43 87  1  0  0  0  0
 44 88  1  0  0  0  0
 44 89  1  0  0  0  0
 45 90  1  0  0  0  0
 45 91  1  0  0  0  0
 45 92  1  0  0  0  0
M  END
> <From>
www.bindingDB.org

> <BindingDB Reactant_set_id>
51069515

> <Ligand InChI>
InChI=1S/C34H47ClN6O3S/c1-22(2)44-31-20-27(25-11-17-41(18-12-25)26-13-15-40(6)16-14-26)24(5)19-30(31)38-34-36-21-28(35)33(39-34)37-29-9-7-8-10-32(29)45(42,43)23(3)4/h7-10,19-23,25-26H,11-18H2,1-6H3,(H2,36,37,38,39)

> <Ligand InChI Key>
GHIBWMIFAQHEOV-UHFFFAOYSA-N

> <BindingDB MonomerID>
50436866

> <BindingDB Ligand Name>
CHEMBL2403838

> <Target Name Assigned by Curator or DataSource>
ALK tyrosine kinase receptor

> <Target Source Organism According to Curator or DataSource>
Homo sapiens

> <Ki (nM)>


> <IC50 (nM)>
 258

> <Kd (nM)>


> <EC50 (nM)>


> <kon (M-1-s-1)>


> <koff (s-1)>


> <pH>


> <Temp C>


> <Curation/DataSource>
ChEMBL

> <Article DOI>
10.1021/jm400402q

> <PMID>
23742252

> <PubChem AID>


> <Patent Number>


> <Authors>
Marsilje, TH; Pei, W; Chen, B; Lu, W; Uno, T; Jin, Y; Jiang, T; Kim, S; Li, N; Warmuth, M; Sarkisova, Y; Sun, F; Steffy, A; Pferdekamper, AC; Li, AG; Joseph, SB; Kim, Y; Liu, B; Tuntland, T; Cui, X; Gray, NS; Steensma, R; Wan, Y; Jiang, J; Chopiuk, G; Li, J; Gordon, WP; Richmond, W; Johnson, K; Chang, J; Groessl, T; He, YQ; Phimister, A; Aycinena, A; Lee, CC; Bursulaya, B; Karanewsky, DS; Seidel, HM; Harris, JL; Michellys, PY

> <Institution>
Genomics Institute of the Novartis Research Foundation 

> <Link to Ligand in BindingDB>
http://www.bindingdb.org/bind/chemsearch/marvin/MolStructure.jsp?monomerid=50436866

> <Link to Ligand-Target Pair in BindingDB>
http://www.bindingdb.org/jsp/dbsearch/PrimarySearch_ki.jsp?energyterm=kJ/mole&tag=pol&polymerid=5809&target=ALK+tyrosine+kinase+receptor&column=ki&startPg=0&Increment=50&submit=Search

> <Link to Ligand-Target Pair in BindingDB>
http://www.bindingdb.org/jsp/dbsearch/PrimarySearch_ki.jsp?energyterm=kJ/mole&tag=r21&monomerid=50436866&enzyme=ALK+tyrosine+kinase+receptor&column=ki&startPg=0&Increment=50&submit=Search

> <Ligand HET ID in PDB>


> <PDB ID(s) for Ligand-Target Complex>


> <PubChem CID>
59764577

> <PubChem SID>
175449183

> <ChEBI ID of Ligand>


> <ChEMBL ID of Ligand>
CHEMBL2403838

> <DrugBank ID of Ligand>


> <IUPHAR_GRAC ID of Ligand>


> <KEGG ID of Ligand>


> <ZINC ID of Ligand>
ZINC96272788

> <Number of Protein Chains in Target (>1 implies a multichain complex)>
1

> <BindingDB Target Chain Sequence>
MGAIGLLWLLPLLLSTAAVGSGMGTGQRAGSPAAGPPLQPREPLSYSRLQRKSLAVDFVVPSLFRVYARDLLLPPSSSELKAGRPEARGSLALDCAPLLRLLGPAPGVSWTAGSPAPAEARTLSRVLKGGSVRKLRRAKQLVLELGEEAILEGCVGPPGEAAVGLLQFNLSELFSWWIRQGEGRLRIRLMPEKKASEVGREGRLSAAIRASQPRLLFQIFGTGHSSLESPTNMPSPSPDYFTWNLTWIMKDSFPFLSHRSRYGLECSFDFPCELEYSPPLHDLRNQSWSWRRIPSEEASQMDLLDGPGAERSKEMPRGSFLLLNTSADSKHTILSPWMRSSSEHCTLAVSVHRHLQPSGRYIAQLLPHNEAAREILLMPTPGKHGWTVLQGRIGRPDNPFRVALEYISSGNRSLSAVDFFALKNCSEGTSPGSKMALQSSFTCWNGTVLQLGQACDFHQDCAQGEDESQMCRKLPVGFYCNFEDGFCGWTQGTLSPHTPQWQVRTLKDARFQDHQDHALLLSTTDVPASESATVTSATFPAPIKSSPCELRMSWLIRGVLRGNVSLVLVENKTGKEQGRMVWHVAAYEGLSLWQWMVLPLLDVSDRFWLQMVAWWGQGSRAIVAFDNISISLDCYLTISGEDKILQNTAPKSRNLFERNPNKELKPGENSPRQTPIFDPTVHWLFTTCGASGPHGPTQAQCNNAYQNSNLSVEVGSEGPLKGIQIWKVPATDTYSISGYGAAGGKGGKNTMMRSHGVSVLGIFNLEKDDMLYILVGQQGEDACPSTNQLIQKVCIGENNVIEEEIRVNRSVHEWAGGGGGGGGATYVFKMKDGVPVPLIIAAGGGGRAYGAKTDTFHPERLENNSSVLGLNGNSGAAGGGGGWNDNTSLLWAGKSLQEGATGGHSCPQAMKKWGWETRGGFGGGGGGCSSGGGGGGYIGGNAASNNDPEMDGEDGVSFISPLGILYTPALKVMEGHGEVNIKHYLNCSHCEVDECHMDPESHKVICFCDHGTVLAEDGVSCIVSPTPEPHLPLSLILSVVTSALVAALVLAFSGIMIVYRRKHQELQAMQMELQSPEYKLSKLRTSTIMTDYNPNYCFAGKTSSISDLKEVPRKNITLIRGLGHGAFGEVYEGQVSGMPNDPSPLQVAVKTLPEVCSEQDELDFLMEALIISKFNHQNIVRCIGVSLQSLPRFILLELMAGGDLKSFLRETRPRPSQPSSLAMLDLLHVARDIACGCQYLEENHFIHRDIAARNCLLTCPGPGRVAKIGDFGMARDIYRASYYRKGGCAMLPVKWMPPEAFMEGIFTSKTDTWSFGVLLWEIFSLGYMPYPSKSNQEVLEFVTSGGRMDPPKNCPGPVYRIMTQCWQHQPEDRPNFAIILERIEYCTQDPDVINTALPIEYGPLVEEEEKVPVRPKDPEGVPPLLVSQQAKREEERSPAAPPPLPTTSSGKAAKKPTAAEISVRVPRGPAVEGGHVNMAFSQSNPPSELHKVHGSRNKPTSLWNPTYGSWFTEKPTKKNNPIAKKEPHDRGNLGLEGSCTVPPNVATGRLPGASLLLEPSSLTANMKEVPLFRLRHFPCGNVNYGYQQQGLPLEAATAPGAGHYEDTILKSKNSMNQPGP

> <PDB ID(s) of Target Chain>
2XB7,2XBA,3AOX,5FTO,5FTQ,6E0R,6EBW,6EDL,6MX8

> <UniProt (SwissProt) Recommended Name of Target Chain>
ALK tyrosine kinase receptor

> <UniProt (SwissProt) Entry Name of Target Chain>
ALK_HUMAN

> <UniProt (SwissProt) Primary ID of Target Chain>
Q9UM73

> <UniProt (SwissProt) Secondary ID(s) of Target Chain>
Q4ZFX9,Q53QQ6,Q53RZ4,Q59FI3,Q9Y4K6

> <UniProt (SwissProt) Alternative ID(s) of Target Chain>


> <UniProt (TrEMBL) Submitted Name of Target Chain>


> <UniProt (TrEMBL) Entry Name of Target Chain>


> <UniProt (TrEMBL) Primary ID of Target Chain>


> <UniProt (TrEMBL) Secondary ID(s) of Target Chain>


> <UniProt (TrEMBL) Alternative ID(s) of Target Chain>


$$$$
BindingDB_50436867_mol_1

Vconf v2.0 Academic SN VC001-00000579
 80 83  0  0  0  0  0  0  0  0999 V2000
   15.9020   -1.2520   -2.5890 O   0  0  0  0  0  0  0  0  0  0  0
   14.5710   -1.3000   -1.7190 S   0  0  0  0  0  0  0  0  0  0  0
   14.4040   -0.4230   -0.4040 O   0  0  0  0  0  0  0  0  0  0  0
   14.1850   -2.9500   -1.3130 C   0  0  0  0  0  0  0  0  0  0  0
   15.0330   -3.9670   -1.7910 C   0  0  0  0  0  0  0  0  0  0  0
   14.7600   -5.3130   -1.5080 C   0  0  0  0  0  0  0  0  0  0  0
   13.6350   -5.6470   -0.7410 C   0  0  0  0  0  0  0  0  0  0  0
   12.7870   -4.6360   -0.2630 C   0  0  0  0  0  0  0  0  0  0  0
   13.0420   -3.2710   -0.5420 C   0  0  0  0  0  0  0  0  0  0  0
   12.2730   -2.2180   -0.1240 N   0  0  0  0  0  0  0  0  0  0  0
   11.1070   -2.1910    0.5860 C   0  0  0  0  0  0  0  0  0  0  0
   10.4860   -3.3260    0.9880 N   0  0  0  0  0  0  0  0  0  0  0
    9.3340   -3.3430    1.7020 C   0  0  0  0  0  0  0  0  0  0  0
    8.7700   -2.1610    2.0360 N   0  0  0  0  0  0  0  0  0  0  0
    9.3220   -0.9820    1.6650 C   0  0  0  0  0  0  0  0  0  0  0
   10.5130   -0.9550    0.9190 C   0  0  0  0  0  0  0  0  0  0  0
   13.2700   -0.6860   -2.8130 C   0  0  0  0  0  0  0  0  0  0  0
   13.5730    0.7700   -3.1890 C   0  0  0  0  0  0  0  0  0  0  0
   13.1720   -1.5490   -4.0800 C   0  0  0  0  0  0  0  0  0  0  0
   11.1720    0.5390    0.4610 Cl  0  0  0  0  0  0  0  0  0  0  0
    8.7460   -4.4960    2.0960 N   0  0  0  0  0  0  0  0  0  0  0
    9.2410   -5.7250    1.8140 C   0  0  0  0  0  0  0  0  0  0  0
    9.7440   -6.5300    2.8530 C   0  0  0  0  0  0  0  0  0  0  0
   10.2930   -7.7880    2.5370 C   0  0  0  0  0  0  0  0  0  0  0
   10.3150   -8.2740    1.2130 C   0  0  0  0  0  0  0  0  0  0  0
    9.7930   -7.4620    0.1760 C   0  0  0  0  0  0  0  0  0  0  0
    9.2620   -6.1960    0.4880 C   0  0  0  0  0  0  0  0  0  0  0
    9.6970   -6.0250    4.1240 O   0  0  0  0  0  0  0  0  0  0  0
   10.0410   -6.7660    5.3010 C   0  0  0  0  0  0  0  0  0  0  0
   10.8970   -9.6170    0.9490 C   0  0  0  0  0  0  0  0  0  0  0
   12.4080   -9.6450    1.2490 C   0  0  0  0  0  0  0  0  0  0  0
   12.9700  -11.0440    0.9550 C   0  0  0  0  0  0  0  0  0  0  0
   12.2780  -12.0570    1.7770 N   0  0  0  0  0  0  0  0  0  0  0
   10.8380  -12.0850    1.4390 C   0  0  0  0  0  0  0  0  0  0  0
   10.1960  -10.7270    1.7590 C   0  0  0  0  0  0  0  0  0  0  0
   10.1260   -5.7670    6.4610 C   0  0  0  0  0  0  0  0  0  0  0
    8.9810   -7.8320    5.6230 C   0  0  0  0  0  0  0  0  0  0  0
    9.8070   -7.9030   -1.2310 C   0  0  0  0  0  0  0  0  0  0  0
   12.8930  -13.3840    1.5610 C   0  0  0  0  0  0  0  0  0  0  0
   12.4880  -14.3170    2.5760 C   0  0  0  0  0  0  0  0  0  0  0
   12.8050  -14.1030    3.8380 O   0  0  0  0  0  0  0  0  0  0  0
   11.8600  -15.3220    2.2840 O   0  0  0  0  0  0  0  0  0  0  0
   15.8510   -3.7280   -2.3510 H   0  0  0  0  0  0  0  0  0  0  0
   15.3770   -6.0460   -1.8580 H   0  0  0  0  0  0  0  0  0  0  0
   13.4330   -6.6250   -0.5300 H   0  0  0  0  0  0  0  0  0  0  0
   11.9890   -4.9220    0.2960 H   0  0  0  0  0  0  0  0  0  0  0
   12.6100   -1.3420   -0.3680 H   0  0  0  0  0  0  0  0  0  0  0
    8.8590   -0.1130    1.9340 H   0  0  0  0  0  0  0  0  0  0  0
   12.3140   -0.7180   -2.2910 H   0  0  0  0  0  0  0  0  0  0  0
   12.7820    1.1590   -3.8310 H   0  0  0  0  0  0  0  0  0  0  0
   13.6300    1.3720   -2.2820 H   0  0  0  0  0  0  0  0  0  0  0
   14.5270    0.8240   -3.7150 H   0  0  0  0  0  0  0  0  0  0  0
   12.4080   -1.1430   -4.7440 H   0  0  0  0  0  0  0  0  0  0  0
   14.1330   -1.5560   -4.5960 H   0  0  0  0  0  0  0  0  0  0  0
   12.9020   -2.5690   -3.8080 H   0  0  0  0  0  0  0  0  0  0  0
    7.9560   -4.4360    2.6540 H   0  0  0  0  0  0  0  0  0  0  0
   10.6830   -8.3630    3.2820 H   0  0  0  0  0  0  0  0  0  0  0
    8.8940   -5.6040   -0.2580 H   0  0  0  0  0  0  0  0  0  0  0
   11.0180   -7.2370    5.1870 H   0  0  0  0  0  0  0  0  0  0  0
   10.7820   -9.8780   -0.1020 H   0  0  0  0  0  0  0  0  0  0  0
   12.5940   -9.4070    2.2970 H   0  0  0  0  0  0  0  0  0  0  0
   12.9220   -8.9160    0.6200 H   0  0  0  0  0  0  0  0  0  0  0
   12.8490  -11.2700   -0.1060 H   0  0  0  0  0  0  0  0  0  0  0
   14.0340  -11.0410    1.1950 H   0  0  0  0  0  0  0  0  0  0  0
   10.3300  -12.8490    2.0290 H   0  0  0  0  0  0  0  0  0  0  0
   10.7020  -12.3110    0.3800 H   0  0  0  0  0  0  0  0  0  0  0
   10.2960  -10.5450    2.8290 H   0  0  0  0  0  0  0  0  0  0  0
    9.1370  -10.7630    1.5000 H   0  0  0  0  0  0  0  0  0  0  0
   10.3930   -6.2880    7.3810 H   0  0  0  0  0  0  0  0  0  0  0
   10.8870   -5.0190    6.2390 H   0  0  0  0  0  0  0  0  0  0  0
    9.1640   -5.2710    6.5930 H   0  0  0  0  0  0  0  0  0  0  0
    9.2330   -8.3330    6.5580 H   0  0  0  0  0  0  0  0  0  0  0
    8.0030   -7.3610    5.7210 H   0  0  0  0  0  0  0  0  0  0  0
    8.9400   -8.5750    4.8290 H   0  0  0  0  0  0  0  0  0  0  0
    9.3920   -7.1410   -1.8940 H   0  0  0  0  0  0  0  0  0  0  0
   10.8320   -8.1070   -1.5420 H   0  0  0  0  0  0  0  0  0  0  0
    9.2110   -8.8100   -1.3350 H   0  0  0  0  0  0  0  0  0  0  0
   12.6240  -13.7640    0.5730 H   0  0  0  0  0  0  0  0  0  0  0
   13.9790  -13.2980    1.6140 H   0  0  0  0  0  0  0  0  0  0  0
   12.4910  -14.8010    4.4480 H   0  0  0  0  0  0  0  0  0  0  0
  1  2  2  0  0  0  0
  2  3  2  0  0  0  0
  2  4  1  0  0  0  0
  2 17  1  0  0  0  0
  4  5  2  0  0  0  0
  4  9  1  0  0  0  0
  5  6  1  0  0  0  0
  5 43  1  0  0  0  0
  6  7  2  0  0  0  0
  6 44  1  0  0  0  0
  7  8  1  0  0  0  0
  7 45  1  0  0  0  0
  8  9  2  0  0  0  0
  8 46  1  0  0  0  0
  9 10  1  0  0  0  0
 10 11  1  0  0  0  0
 10 47  1  0  0  0  0
 11 12  2  0  0  0  0
 11 16  1  0  0  0  0
 12 13  1  0  0  0  0
 13 14  2  0  0  0  0
 13 21  1  0  0  0  0
 14 15  1  0  0  0  0
 15 16  2  0  0  0  0
 15 48  1  0  0  0  0
 16 20  1  0  0  0  0
 17 18  1  0  0  0  0
 17 19  1  0  0  0  0
 17 49  1  0  0  0  0
 18 50  1  0  0  0  0
 18 51  1  0  0  0  0
 18 52  1  0  0  0  0
 19 53  1  0  0  0  0
 19 54  1  0  0  0  0
 19 55  1  0  0  0  0
 21 22  1  0  0  0  0
 21 56  1  0  0  0  0
 22 23  2  0  0  0  0
 22 27  1  0  0  0  0
 23 24  1  0  0  0  0
 23 28  1  0  0  0  0
 24 25  2  0  0  0  0
 24 57  1  0  0  0  0
 25 26  1  0  0  0  0
 25 30  1  0  0  0  0
 26 27  2  0  0  0  0
 26 38  1  0  0  0  0
 27 58  1  0  0  0  0
 28 29  1  0  0  0  0
 29 36  1  0  0  0  0
 29 37  1  0  0  0  0
 29 59  1  0  0  0  0
 30 31  1  0  0  0  0
 30 35  1  0  0  0  0
 30 60  1  0  0  0  0
 31 32  1  0  0  0  0
 31 61  1  0  0  0  0
 31 62  1  0  0  0  0
 32 33  1  0  0  0  0
 32 63  1  0  0  0  0
 32 64  1  0  0  0  0
 33 34  1  0  0  0  0
 33 39  1  0  0  0  0
 34 35  1  0  0  0  0
 34 65  1  0  0  0  0
 34 66  1  0  0  0  0
 35 67  1  0  0  0  0
 35 68  1  0  0  0  0
 36 69  1  0  0  0  0
 36 70  1  0  0  0  0
 36 71  1  0  0  0  0
 37 72  1  0  0  0  0
 37 73  1  0  0  0  0
 37 74  1  0  0  0  0
 38 75  1  0  0  0  0
 38 76  1  0  0  0  0
 38 77  1  0  0  0  0
 39 40  1  0  0  0  0
 39 78  1  0  0  0  0
 39 79  1  0  0  0  0
 40 41  1  0  0  0  0
 40 42  2  0  0  0  0
 41 80  1  0  0  0  0
M  END
> <From>
www.bindingDB.org

> <BindingDB Reactant_set_id>
51069520

> <Ligand InChI>
InChI=1S/C30H38ClN5O5S/c1-18(2)41-26-15-22(21-10-12-36(13-11-21)17-28(37)38)20(5)14-25(26)34-30-32-16-23(31)29(35-30)33-24-8-6-7-9-27(24)42(39,40)19(3)4/h6-9,14-16,18-19,21H,10-13,17H2,1-5H3,(H,37,38)(H2,32,33,34,35)

> <Ligand InChI Key>
UWQCPRVJOPGITM-UHFFFAOYSA-N

> <BindingDB MonomerID>
50436867

> <BindingDB Ligand Name>
CHEMBL2403840

> <Target Name Assigned by Curator or DataSource>
ALK tyrosine kinase receptor

> <Target Source Organism According to Curator or DataSource>
Homo sapiens

> <Ki (nM)>


> <IC50 (nM)>
 89

> <Kd (nM)>


> <EC50 (nM)>


> <kon (M-1-s-1)>


> <koff (s-1)>


> <pH>


> <Temp C>


> <Curation/DataSource>
ChEMBL

> <Article DOI>
10.1021/jm400402q

> <PMID>
23742252

> <PubChem AID>


> <Patent Number>


> <Authors>
Marsilje, TH; Pei, W; Chen, B; Lu, W; Uno, T; Jin, Y; Jiang, T; Kim, S; Li, N; Warmuth, M; Sarkisova, Y; Sun, F; Steffy, A; Pferdekamper, AC; Li, AG; Joseph, SB; Kim, Y; Liu, B; Tuntland, T; Cui, X; Gray, NS; Steensma, R; Wan, Y; Jiang, J; Chopiuk, G; Li, J; Gordon, WP; Richmond, W; Johnson, K; Chang, J; Groessl, T; He, YQ; Phimister, A; Aycinena, A; Lee, CC; Bursulaya, B; Karanewsky, DS; Seidel, HM; Harris, JL; Michellys, PY

> <Institution>
Genomics Institute of the Novartis Research Foundation 

> <Link to Ligand in BindingDB>
http://www.bindingdb.org/bind/chemsearch/marvin/MolStructure.jsp?monomerid=50436867

> <Link to Ligand-Target Pair in BindingDB>
http://www.bindingdb.org/jsp/dbsearch/PrimarySearch_ki.jsp?energyterm=kJ/mole&tag=pol&polymerid=5809&target=ALK+tyrosine+kinase+receptor&column=ki&startPg=0&Increment=50&submit=Search

> <Link to Ligand-Target Pair in BindingDB>
http://www.bindingdb.org/jsp/dbsearch/PrimarySearch_ki.jsp?energyterm=kJ/mole&tag=r21&monomerid=50436867&enzyme=ALK+tyrosine+kinase+receptor&column=ki&startPg=0&Increment=50&submit=Search

> <Ligand HET ID in PDB>


> <PDB ID(s) for Ligand-Target Complex>


> <PubChem CID>
71764394

> <PubChem SID>
175449184

> <ChEBI ID of Ligand>


> <ChEMBL ID of Ligand>
CHEMBL2403840

> <DrugBank ID of Ligand>


> <IUPHAR_GRAC ID of Ligand>


> <KEGG ID of Ligand>


> <ZINC ID of Ligand>
ZINC96272789

> <Number of Protein Chains in Target (>1 implies a multichain complex)>
1

> <BindingDB Target Chain Sequence>
MGAIGLLWLLPLLLSTAAVGSGMGTGQRAGSPAAGPPLQPREPLSYSRLQRKSLAVDFVVPSLFRVYARDLLLPPSSSELKAGRPEARGSLALDCAPLLRLLGPAPGVSWTAGSPAPAEARTLSRVLKGGSVRKLRRAKQLVLELGEEAILEGCVGPPGEAAVGLLQFNLSELFSWWIRQGEGRLRIRLMPEKKASEVGREGRLSAAIRASQPRLLFQIFGTGHSSLESPTNMPSPSPDYFTWNLTWIMKDSFPFLSHRSRYGLECSFDFPCELEYSPPLHDLRNQSWSWRRIPSEEASQMDLLDGPGAERSKEMPRGSFLLLNTSADSKHTILSPWMRSSSEHCTLAVSVHRHLQPSGRYIAQLLPHNEAAREILLMPTPGKHGWTVLQGRIGRPDNPFRVALEYISSGNRSLSAVDFFALKNCSEGTSPGSKMALQSSFTCWNGTVLQLGQACDFHQDCAQGEDESQMCRKLPVGFYCNFEDGFCGWTQGTLSPHTPQWQVRTLKDARFQDHQDHALLLSTTDVPASESATVTSATFPAPIKSSPCELRMSWLIRGVLRGNVSLVLVENKTGKEQGRMVWHVAAYEGLSLWQWMVLPLLDVSDRFWLQMVAWWGQGSRAIVAFDNISISLDCYLTISGEDKILQNTAPKSRNLFERNPNKELKPGENSPRQTPIFDPTVHWLFTTCGASGPHGPTQAQCNNAYQNSNLSVEVGSEGPLKGIQIWKVPATDTYSISGYGAAGGKGGKNTMMRSHGVSVLGIFNLEKDDMLYILVGQQGEDACPSTNQLIQKVCIGENNVIEEEIRVNRSVHEWAGGGGGGGGATYVFKMKDGVPVPLIIAAGGGGRAYGAKTDTFHPERLENNSSVLGLNGNSGAAGGGGGWNDNTSLLWAGKSLQEGATGGHSCPQAMKKWGWETRGGFGGGGGGCSSGGGGGGYIGGNAASNNDPEMDGEDGVSFISPLGILYTPALKVMEGHGEVNIKHYLNCSHCEVDECHMDPESHKVICFCDHGTVLAEDGVSCIVSPTPEPHLPLSLILSVVTSALVAALVLAFSGIMIVYRRKHQELQAMQMELQSPEYKLSKLRTSTIMTDYNPNYCFAGKTSSISDLKEVPRKNITLIRGLGHGAFGEVYEGQVSGMPNDPSPLQVAVKTLPEVCSEQDELDFLMEALIISKFNHQNIVRCIGVSLQSLPRFILLELMAGGDLKSFLRETRPRPSQPSSLAMLDLLHVARDIACGCQYLEENHFIHRDIAARNCLLTCPGPGRVAKIGDFGMARDIYRASYYRKGGCAMLPVKWMPPEAFMEGIFTSKTDTWSFGVLLWEIFSLGYMPYPSKSNQEVLEFVTSGGRMDPPKNCPGPVYRIMTQCWQHQPEDRPNFAIILERIEYCTQDPDVINTALPIEYGPLVEEEEKVPVRPKDPEGVPPLLVSQQAKREEERSPAAPPPLPTTSSGKAAKKPTAAEISVRVPRGPAVEGGHVNMAFSQSNPPSELHKVHGSRNKPTSLWNPTYGSWFTEKPTKKNNPIAKKEPHDRGNLGLEGSCTVPPNVATGRLPGASLLLEPSSLTANMKEVPLFRLRHFPCGNVNYGYQQQGLPLEAATAPGAGHYEDTILKSKNSMNQPGP

> <PDB ID(s) of Target Chain>
2XB7,2XBA,3AOX,5FTO,5FTQ,6E0R,6EBW,6EDL,6MX8

> <UniProt (SwissProt) Recommended Name of Target Chain>
ALK tyrosine kinase receptor

> <UniProt (SwissProt) Entry Name of Target Chain>
ALK_HUMAN

> <UniProt (SwissProt) Primary ID of Target Chain>
Q9UM73

> <UniProt (SwissProt) Secondary ID(s) of Target Chain>
Q4ZFX9,Q53QQ6,Q53RZ4,Q59FI3,Q9Y4K6

> <UniProt (SwissProt) Alternative ID(s) of Target Chain>


> <UniProt (TrEMBL) Submitted Name of Target Chain>


> <UniProt (TrEMBL) Entry Name of Target Chain>


> <UniProt (TrEMBL) Primary ID of Target Chain>


> <UniProt (TrEMBL) Secondary ID(s) of Target Chain>


> <UniProt (TrEMBL) Alternative ID(s) of Target Chain>


$$$$
BindingDB_50436868_mol_1

Vconf v2.0 Academic SN VC001-00000579
 73 76  0  0  0  0  0  0  0  0999 V2000
   23.0710  -16.3440   -1.7710 O   0  0  0  0  0  0  0  0  0  0  0
   24.6330  -16.3560   -2.0700 S   0  0  0  0  0  0  0  0  0  0  0
   25.1430  -16.9940   -3.4350 O   0  0  0  0  0  0  0  0  0  0  0
   25.5390  -17.0510   -0.7500 C   0  0  0  0  0  0  0  0  0  0  0
   26.7370  -17.7170   -1.0730 C   0  0  0  0  0  0  0  0  0  0  0
   27.5410  -18.2740   -0.0680 C   0  0  0  0  0  0  0  0  0  0  0
   27.1480  -18.1680    1.2720 C   0  0  0  0  0  0  0  0  0  0  0
   25.9580  -17.5020    1.6010 C   0  0  0  0  0  0  0  0  0  0  0
   25.1340  -16.9260    0.6020 C   0  0  0  0  0  0  0  0  0  0  0
   23.9610  -16.2610    0.8470 N   0  0  0  0  0  0  0  0  0  0  0
   23.4000  -15.8610    2.0260 C   0  0  0  0  0  0  0  0  0  0  0
   24.0520  -15.9950    3.2050 N   0  0  0  0  0  0  0  0  0  0  0
   23.5530  -15.5860    4.3950 C   0  0  0  0  0  0  0  0  0  0  0
   22.3300  -15.0120    4.4140 N   0  0  0  0  0  0  0  0  0  0  0
   21.6120  -14.8390    3.2790 C   0  0  0  0  0  0  0  0  0  0  0
   22.1260  -15.2530    2.0380 C   0  0  0  0  0  0  0  0  0  0  0
   25.1000  -14.6160   -2.2390 C   0  0  0  0  0  0  0  0  0  0  0
   24.6980  -13.7980   -1.0020 C   0  0  0  0  0  0  0  0  0  0  0
   26.6080  -14.4740   -2.4950 C   0  0  0  0  0  0  0  0  0  0  0
   24.2460  -15.7220    5.5480 N   0  0  0  0  0  0  0  0  0  0  0
   25.4940  -16.2450    5.6010 C   0  0  0  0  0  0  0  0  0  0  0
   26.6150  -15.3950    5.6160 C   0  0  0  0  0  0  0  0  0  0  0
   27.9030  -15.9650    5.6120 C   0  0  0  0  0  0  0  0  0  0  0
   28.0930  -17.3630    5.6130 C   0  0  0  0  0  0  0  0  0  0  0
   26.9560  -18.2090    5.6230 C   0  0  0  0  0  0  0  0  0  0  0
   25.6670  -17.6400    5.6190 C   0  0  0  0  0  0  0  0  0  0  0
   26.3920  -14.0460    5.5980 O   0  0  0  0  0  0  0  0  0  0  0
   27.3810  -13.0560    5.9080 C   0  0  0  0  0  0  0  0  0  0  0
   29.4810  -17.9000    5.5980 C   0  0  1  0  0  0  0  0  0  0  0
   30.2640  -17.4430    4.3540 C   0  0  0  0  0  0  0  0  0  0  0
   31.6260  -18.1570    4.3320 C   0  0  0  0  0  0  0  0  0  0  0
   32.2810  -18.1830    5.5960 N   0  0  0  0  0  0  0  0  0  0  0
   31.6880  -17.8720    6.7680 C   0  0  0  0  0  0  0  0  0  0  0
   30.2710  -17.4950    6.8630 C   0  0  0  0  0  0  0  0  0  0  0
   26.7810  -11.6870    5.5640 C   0  0  0  0  0  0  0  0  0  0  0
   27.7530  -13.0890    7.4000 C   0  0  0  0  0  0  0  0  0  0  0
   27.0860  -19.6770    5.6300 C   0  0  0  0  0  0  0  0  0  0  0
   21.1990  -15.0090    0.6400 Cl  0  0  0  0  0  0  0  0  0  0  0
   32.3830  -17.8940    7.8060 O   0  0  0  0  0  0  0  0  0  0  0
   27.0300  -17.7920   -2.0470 H   0  0  0  0  0  0  0  0  0  0  0
   28.4060  -18.7580   -0.3130 H   0  0  0  0  0  0  0  0  0  0  0
   27.7230  -18.5800    2.0080 H   0  0  0  0  0  0  0  0  0  0  0
   25.6990  -17.4690    2.5830 H   0  0  0  0  0  0  0  0  0  0  0
   23.4510  -16.0200    0.0610 H   0  0  0  0  0  0  0  0  0  0  0
   20.6930  -14.3990    3.3380 H   0  0  0  0  0  0  0  0  0  0  0
   24.5670  -14.2130   -3.1000 H   0  0  0  0  0  0  0  0  0  0  0
   24.9060  -12.7430   -1.1780 H   0  0  0  0  0  0  0  0  0  0  0
   23.6320  -13.9230   -0.8140 H   0  0  0  0  0  0  0  0  0  0  0
   25.2610  -14.1320   -0.1300 H   0  0  0  0  0  0  0  0  0  0  0
   26.8500  -13.4280   -2.6850 H   0  0  0  0  0  0  0  0  0  0  0
   27.1700  -14.8210   -1.6280 H   0  0  0  0  0  0  0  0  0  0  0
   26.8860  -15.0690   -3.3660 H   0  0  0  0  0  0  0  0  0  0  0
   23.8480  -15.3890    6.3660 H   0  0  0  0  0  0  0  0  0  0  0
   28.7180  -15.3530    5.6020 H   0  0  0  0  0  0  0  0  0  0  0
   24.8450  -18.2460    5.6130 H   0  0  0  0  0  0  0  0  0  0  0
   28.2760  -13.1970    5.3000 H   0  0  0  0  0  0  0  0  0  0  0
   29.4630  -18.9900    5.5720 H   0  0  0  0  0  0  0  0  0  0  0
   30.4290  -16.3640    4.3890 H   0  0  0  0  0  0  0  0  0  0  0
   29.7140  -17.6910    3.4440 H   0  0  0  0  0  0  0  0  0  0  0
   31.4850  -19.1860    4.0000 H   0  0  0  0  0  0  0  0  0  0  0
   32.2690  -17.6460    3.6150 H   0  0  0  0  0  0  0  0  0  0  0
   33.2110  -18.4590    5.6250 H   0  0  0  0  0  0  0  0  0  0  0
   30.2220  -16.4170    7.0240 H   0  0  0  0  0  0  0  0  0  0  0
   29.8320  -17.9980    7.7250 H   0  0  0  0  0  0  0  0  0  0  0
   27.5030  -10.8990    5.7830 H   0  0  0  0  0  0  0  0  0  0  0
   26.5310  -11.6580    4.5030 H   0  0  0  0  0  0  0  0  0  0  0
   25.8760  -11.5240    6.1510 H   0  0  0  0  0  0  0  0  0  0  0
   28.4290  -12.2640    7.6280 H   0  0  0  0  0  0  0  0  0  0  0
   26.8500  -12.9900    8.0030 H   0  0  0  0  0  0  0  0  0  0  0
   28.2460  -14.0290    7.6440 H   0  0  0  0  0  0  0  0  0  0  0
   26.1110  -20.1680    5.6420 H   0  0  0  0  0  0  0  0  0  0  0
   27.6220  -20.0010    4.7380 H   0  0  0  0  0  0  0  0  0  0  0
   27.6380  -19.9900    6.5180 H   0  0  0  0  0  0  0  0  0  0  0
  1  2  2  0  0  0  0
  2  3  2  0  0  0  0
  2  4  1  0  0  0  0
  2 17  1  0  0  0  0
  4  5  2  0  0  0  0
  4  9  1  0  0  0  0
  5  6  1  0  0  0  0
  5 40  1  0  0  0  0
  6  7  2  0  0  0  0
  6 41  1  0  0  0  0
  7  8  1  0  0  0  0
  7 42  1  0  0  0  0
  8  9  2  0  0  0  0
  8 43  1  0  0  0  0
  9 10  1  0  0  0  0
 10 11  1  0  0  0  0
 10 44  1  0  0  0  0
 11 12  2  0  0  0  0
 11 16  1  0  0  0  0
 12 13  1  0  0  0  0
 13 14  2  0  0  0  0
 13 20  1  0  0  0  0
 14 15  1  0  0  0  0
 15 16  2  0  0  0  0
 15 45  1  0  0  0  0
 16 38  1  0  0  0  0
 17 18  1  0  0  0  0
 17 19  1  0  0  0  0
 17 46  1  0  0  0  0
 18 47  1  0  0  0  0
 18 48  1  0  0  0  0
 18 49  1  0  0  0  0
 19 50  1  0  0  0  0
 19 51  1  0  0  0  0
 19 52  1  0  0  0  0
 20 21  1  0  0  0  0
 20 53  1  0  0  0  0
 21 22  2  0  0  0  0
 21 26  1  0  0  0  0
 22 23  1  0  0  0  0
 22 27  1  0  0  0  0
 23 24  2  0  0  0  0
 23 54  1  0  0  0  0
 24 25  1  0  0  0  0
 24 29  1  0  0  0  0
 25 26  2  0  0  0  0
 25 37  1  0  0  0  0
 26 55  1  0  0  0  0
 27 28  1  0  0  0  0
 28 35  1  0  0  0  0
 28 36  1  0  0  0  0
 28 56  1  0  0  0  0
 29 30  1  0  0  0  0
 29 34  1  0  0  0  0
 29 57  1  0  0  0  0
 30 31  1  0  0  0  0
 30 58  1  0  0  0  0
 30 59  1  0  0  0  0
 31 32  1  0  0  0  0
 31 60  1  0  0  0  0
 31 61  1  0  0  0  0
 32 33  1  0  0  0  0
 32 62  1  0  0  0  0
 33 34  1  0  0  0  0
 33 39  2  0  0  0  0
 34 63  1  0  0  0  0
 34 64  1  0  0  0  0
 35 65  1  0  0  0  0
 35 66  1  0  0  0  0
 35 67  1  0  0  0  0
 36 68  1  0  0  0  0
 36 69  1  0  0  0  0
 36 70  1  0  0  0  0
 37 71  1  0  0  0  0
 37 72  1  0  0  0  0
 37 73  1  0  0  0  0
M  END
> <From>
www.bindingDB.org

> <BindingDB Reactant_set_id>
51069522

> <Ligand InChI>
InChI=1S/C28H34ClN5O4S/c1-16(2)38-24-14-20(19-10-11-30-26(35)13-19)18(5)12-23(24)33-28-31-15-21(29)27(34-28)32-22-8-6-7-9-25(22)39(36,37)17(3)4/h6-9,12,14-17,19H,10-11,13H2,1-5H3,(H,30,35)(H2,31,32,33,34)

> <Ligand InChI Key>
IHCBPZKNVNJFAT-UHFFFAOYSA-N

> <BindingDB MonomerID>
50436868

> <BindingDB Ligand Name>
CHEMBL2403830

> <Target Name Assigned by Curator or DataSource>
ALK tyrosine kinase receptor

> <Target Source Organism According to Curator or DataSource>
Homo sapiens

> <Ki (nM)>


> <IC50 (nM)>
 48

> <Kd (nM)>


> <EC50 (nM)>


> <kon (M-1-s-1)>


> <koff (s-1)>


> <pH>


> <Temp C>


> <Curation/DataSource>
ChEMBL

> <Article DOI>
10.1021/jm400402q

> <PMID>
23742252

> <PubChem AID>


> <Patent Number>


> <Authors>
Marsilje, TH; Pei, W; Chen, B; Lu, W; Uno, T; Jin, Y; Jiang, T; Kim, S; Li, N; Warmuth, M; Sarkisova, Y; Sun, F; Steffy, A; Pferdekamper, AC; Li, AG; Joseph, SB; Kim, Y; Liu, B; Tuntland, T; Cui, X; Gray, NS; Steensma, R; Wan, Y; Jiang, J; Chopiuk, G; Li, J; Gordon, WP; Richmond, W; Johnson, K; Chang, J; Groessl, T; He, YQ; Phimister, A; Aycinena, A; Lee, CC; Bursulaya, B; Karanewsky, DS; Seidel, HM; Harris, JL; Michellys, PY

> <Institution>
Genomics Institute of the Novartis Research Foundation 

> <Link to Ligand in BindingDB>
http://www.bindingdb.org/bind/chemsearch/marvin/MolStructure.jsp?monomerid=50436868

> <Link to Ligand-Target Pair in BindingDB>
http://www.bindingdb.org/jsp/dbsearch/PrimarySearch_ki.jsp?energyterm=kJ/mole&tag=pol&polymerid=5809&target=ALK+tyrosine+kinase+receptor&column=ki&startPg=0&Increment=50&submit=Search

> <Link to Ligand-Target Pair in BindingDB>
http://www.bindingdb.org/jsp/dbsearch/PrimarySearch_ki.jsp?energyterm=kJ/mole&tag=r21&monomerid=50436868&enzyme=ALK+tyrosine+kinase+receptor&column=ki&startPg=0&Increment=50&submit=Search

> <Ligand HET ID in PDB>


> <PDB ID(s) for Ligand-Target Complex>


> <PubChem CID>
71763639

> <PubChem SID>
175449185

> <ChEBI ID of Ligand>


> <ChEMBL ID of Ligand>
CHEMBL2403830

> <DrugBank ID of Ligand>


> <IUPHAR_GRAC ID of Ligand>


> <KEGG ID of Ligand>


> <ZINC ID of Ligand>
ZINC96272791

> <Number of Protein Chains in Target (>1 implies a multichain complex)>
1

> <BindingDB Target Chain Sequence>
MGAIGLLWLLPLLLSTAAVGSGMGTGQRAGSPAAGPPLQPREPLSYSRLQRKSLAVDFVVPSLFRVYARDLLLPPSSSELKAGRPEARGSLALDCAPLLRLLGPAPGVSWTAGSPAPAEARTLSRVLKGGSVRKLRRAKQLVLELGEEAILEGCVGPPGEAAVGLLQFNLSELFSWWIRQGEGRLRIRLMPEKKASEVGREGRLSAAIRASQPRLLFQIFGTGHSSLESPTNMPSPSPDYFTWNLTWIMKDSFPFLSHRSRYGLECSFDFPCELEYSPPLHDLRNQSWSWRRIPSEEASQMDLLDGPGAERSKEMPRGSFLLLNTSADSKHTILSPWMRSSSEHCTLAVSVHRHLQPSGRYIAQLLPHNEAAREILLMPTPGKHGWTVLQGRIGRPDNPFRVALEYISSGNRSLSAVDFFALKNCSEGTSPGSKMALQSSFTCWNGTVLQLGQACDFHQDCAQGEDESQMCRKLPVGFYCNFEDGFCGWTQGTLSPHTPQWQVRTLKDARFQDHQDHALLLSTTDVPASESATVTSATFPAPIKSSPCELRMSWLIRGVLRGNVSLVLVENKTGKEQGRMVWHVAAYEGLSLWQWMVLPLLDVSDRFWLQMVAWWGQGSRAIVAFDNISISLDCYLTISGEDKILQNTAPKSRNLFERNPNKELKPGENSPRQTPIFDPTVHWLFTTCGASGPHGPTQAQCNNAYQNSNLSVEVGSEGPLKGIQIWKVPATDTYSISGYGAAGGKGGKNTMMRSHGVSVLGIFNLEKDDMLYILVGQQGEDACPSTNQLIQKVCIGENNVIEEEIRVNRSVHEWAGGGGGGGGATYVFKMKDGVPVPLIIAAGGGGRAYGAKTDTFHPERLENNSSVLGLNGNSGAAGGGGGWNDNTSLLWAGKSLQEGATGGHSCPQAMKKWGWETRGGFGGGGGGCSSGGGGGGYIGGNAASNNDPEMDGEDGVSFISPLGILYTPALKVMEGHGEVNIKHYLNCSHCEVDECHMDPESHKVICFCDHGTVLAEDGVSCIVSPTPEPHLPLSLILSVVTSALVAALVLAFSGIMIVYRRKHQELQAMQMELQSPEYKLSKLRTSTIMTDYNPNYCFAGKTSSISDLKEVPRKNITLIRGLGHGAFGEVYEGQVSGMPNDPSPLQVAVKTLPEVCSEQDELDFLMEALIISKFNHQNIVRCIGVSLQSLPRFILLELMAGGDLKSFLRETRPRPSQPSSLAMLDLLHVARDIACGCQYLEENHFIHRDIAARNCLLTCPGPGRVAKIGDFGMARDIYRASYYRKGGCAMLPVKWMPPEAFMEGIFTSKTDTWSFGVLLWEIFSLGYMPYPSKSNQEVLEFVTSGGRMDPPKNCPGPVYRIMTQCWQHQPEDRPNFAIILERIEYCTQDPDVINTALPIEYGPLVEEEEKVPVRPKDPEGVPPLLVSQQAKREEERSPAAPPPLPTTSSGKAAKKPTAAEISVRVPRGPAVEGGHVNMAFSQSNPPSELHKVHGSRNKPTSLWNPTYGSWFTEKPTKKNNPIAKKEPHDRGNLGLEGSCTVPPNVATGRLPGASLLLEPSSLTANMKEVPLFRLRHFPCGNVNYGYQQQGLPLEAATAPGAGHYEDTILKSKNSMNQPGP

> <PDB ID(s) of Target Chain>
2XB7,2XBA,3AOX,5FTO,5FTQ,6E0R,6EBW,6EDL,6MX8

> <UniProt (SwissProt) Recommended Name of Target Chain>
ALK tyrosine kinase receptor

> <UniProt (SwissProt) Entry Name of Target Chain>
ALK_HUMAN

> <UniProt (SwissProt) Primary ID of Target Chain>
Q9UM73

> <UniProt (SwissProt) Secondary ID(s) of Target Chain>
Q4ZFX9,Q53QQ6,Q53RZ4,Q59FI3,Q9Y4K6

> <UniProt (SwissProt) Alternative ID(s) of Target Chain>


> <UniProt (TrEMBL) Submitted Name of Target Chain>


> <UniProt (TrEMBL) Entry Name of Target Chain>


> <UniProt (TrEMBL) Primary ID of Target Chain>


> <UniProt (TrEMBL) Secondary ID(s) of Target Chain>


> <UniProt (TrEMBL) Alternative ID(s) of Target Chain>


$$$$
BindingDB_50436869_mol_1

Vconf v2.0 Academic SN VC001-00000579
 77 80  0  0  0  0  0  0  0  0999 V2000
   29.4920  -10.2810   -3.0550 O   0  0  0  0  0  0  0  0  0  0  0
   28.2890  -10.1770   -2.0200 S   0  0  0  0  0  0  0  0  0  0  0
   28.3300   -9.1690   -0.7900 O   0  0  0  0  0  0  0  0  0  0  0
   27.8850  -11.7580   -1.4090 C   0  0  0  0  0  0  0  0  0  0  0
   28.6040  -12.8670   -1.8940 C   0  0  0  0  0  0  0  0  0  0  0
   28.2870  -14.1640   -1.4630 C   0  0  0  0  0  0  0  0  0  0  0
   27.2500  -14.3560   -0.5400 C   0  0  0  0  0  0  0  0  0  0  0
   26.5340  -13.2510   -0.0510 C   0  0  0  0  0  0  0  0  0  0  0
   26.8330  -11.9350   -0.4790 C   0  0  0  0  0  0  0  0  0  0  0
   26.1880  -10.8010   -0.0680 N   0  0  0  0  0  0  0  0  0  0  0
   25.0920  -10.6450    0.7230 C   0  0  0  0  0  0  0  0  0  0  0
   24.3990  -11.6940    1.2210 N   0  0  0  0  0  0  0  0  0  0  0
   23.2860  -11.5690    1.9810 C   0  0  0  0  0  0  0  0  0  0  0
   22.8480  -10.3250    2.2730 N   0  0  0  0  0  0  0  0  0  0  0
   23.4900   -9.2220    1.8140 C   0  0  0  0  0  0  0  0  0  0  0
   24.6380   -9.3420    1.0120 C   0  0  0  0  0  0  0  0  0  0  0
   26.8710   -9.6220   -2.9950 C   0  0  0  0  0  0  0  0  0  0  0
   27.1340   -8.1990   -3.5080 C   0  0  0  0  0  0  0  0  0  0  0
   26.6160  -10.5720   -4.1750 C   0  0  0  0  0  0  0  0  0  0  0
   22.6080  -12.6490    2.4430 N   0  0  0  0  0  0  0  0  0  0  0
   22.9650  -13.9360    2.1960 C   0  0  0  0  0  0  0  0  0  0  0
   23.0960  -14.4420    0.8840 C   0  0  0  0  0  0  0  0  0  0  0
   23.5320  -15.7680    0.7030 C   0  0  0  0  0  0  0  0  0  0  0
   23.8270  -16.6060    1.7980 C   0  0  0  0  0  0  0  0  0  0  0
   23.6660  -16.0980    3.1100 C   0  0  0  0  0  0  0  0  0  0  0
   23.2280  -14.7710    3.2940 C   0  0  0  0  0  0  0  0  0  0  0
   22.8260  -13.5960   -0.1580 O   0  0  0  0  0  0  0  0  0  0  0
   23.0820  -13.8930   -1.5350 C   0  0  0  0  0  0  0  0  0  0  0
   24.3070  -17.9890    1.5320 C   0  0  0  0  0  0  0  0  0  0  0
   23.2710  -18.8190    0.7460 C   0  0  0  0  0  0  0  0  0  0  0
   23.8180  -20.2330    0.4990 C   0  0  0  0  0  0  0  0  0  0  0
   25.0810  -20.1660   -0.2510 N   0  0  0  0  0  0  0  0  0  0  0
   26.1010  -19.4370    0.5180 C   0  0  0  0  0  0  0  0  0  0  0
   25.6480  -17.9910    0.7680 C   0  0  0  0  0  0  0  0  0  0  0
   25.3350   -8.1490    0.4950 C   0  0  0  0  0  0  0  0  0  0  0
   23.9640  -16.9220    4.2960 C   0  0  0  0  0  0  0  0  0  0  0
   21.9500  -14.7490   -2.1260 C   0  0  0  0  0  0  0  0  0  0  0
   23.1660  -12.5600   -2.2900 C   0  0  0  0  0  0  0  0  0  0  0
   29.3560  -12.7310   -2.5690 H   0  0  0  0  0  0  0  0  0  0  0
   28.8100  -14.9650   -1.8190 H   0  0  0  0  0  0  0  0  0  0  0
   27.0180  -15.2970   -0.2190 H   0  0  0  0  0  0  0  0  0  0  0
   25.8010  -13.4310    0.6290 H   0  0  0  0  0  0  0  0  0  0  0
   26.5600   -9.9690   -0.3990 H   0  0  0  0  0  0  0  0  0  0  0
   23.1270   -8.3000    2.0530 H   0  0  0  0  0  0  0  0  0  0  0
   25.9840   -9.6050   -2.3630 H   0  0  0  0  0  0  0  0  0  0  0
   26.2760   -7.8480   -4.0830 H   0  0  0  0  0  0  0  0  0  0  0
   27.2950   -7.5320   -2.6610 H   0  0  0  0  0  0  0  0  0  0  0
   28.0210   -8.1960   -4.1420 H   0  0  0  0  0  0  0  0  0  0  0
   25.7790  -10.2040   -4.7700 H   0  0  0  0  0  0  0  0  0  0  0
   27.5070  -10.6280   -4.8020 H   0  0  0  0  0  0  0  0  0  0  0
   26.3760  -11.5670   -3.8020 H   0  0  0  0  0  0  0  0  0  0  0
   21.8490  -12.4890    3.0230 H   0  0  0  0  0  0  0  0  0  0  0
   23.6480  -16.1320   -0.2420 H   0  0  0  0  0  0  0  0  0  0  0
   23.1240  -14.4010    4.2400 H   0  0  0  0  0  0  0  0  0  0  0
   24.0380  -14.4060   -1.6530 H   0  0  0  0  0  0  0  0  0  0  0
   24.4820  -18.5150    2.4700 H   0  0  0  0  0  0  0  0  0  0  0
   23.0600  -18.3560   -0.2190 H   0  0  0  0  0  0  0  0  0  0  0
   22.3450  -18.8900    1.3180 H   0  0  0  0  0  0  0  0  0  0  0
   23.9760  -20.7380    1.4530 H   0  0  0  0  0  0  0  0  0  0  0
   23.0900  -20.7990   -0.0830 H   0  0  0  0  0  0  0  0  0  0  0
   25.4170  -21.1260   -0.3580 H   0  0  0  0  0  0  0  0  0  0  0
   27.0320  -19.4250   -0.0500 H   0  0  0  0  0  0  0  0  0  0  0
   26.2770  -19.9370    1.4720 H   0  0  0  0  0  0  0  0  0  0  0
   25.5430  -17.4880   -0.1950 H   0  0  0  0  0  0  0  0  0  0  0
   26.4090  -17.4760    1.3570 H   0  0  0  0  0  0  0  0  0  0  0
   24.8490   -7.2330    0.8340 H   0  0  0  0  0  0  0  0  0  0  0
   26.3680   -8.1470    0.8460 H   0  0  0  0  0  0  0  0  0  0  0
   25.3280   -8.1640   -0.5950 H   0  0  0  0  0  0  0  0  0  0  0
   23.7820  -16.3740    5.2220 H   0  0  0  0  0  0  0  0  0  0  0
   23.3320  -17.8110    4.2930 H   0  0  0  0  0  0  0  0  0  0  0
   25.0120  -17.2240    4.2760 H   0  0  0  0  0  0  0  0  0  0  0
   22.1490  -14.9420   -3.1800 H   0  0  0  0  0  0  0  0  0  0  0
   21.8820  -15.6990   -1.5980 H   0  0  0  0  0  0  0  0  0  0  0
   21.0010  -14.2200   -2.0280 H   0  0  0  0  0  0  0  0  0  0  0
   23.3830  -12.7450   -3.3430 H   0  0  0  0  0  0  0  0  0  0  0
   22.2200  -12.0250   -2.2030 H   0  0  0  0  0  0  0  0  0  0  0
   23.9630  -11.9520   -1.8610 H   0  0  0  0  0  0  0  0  0  0  0
  1  2  2  0  0  0  0
  2  3  2  0  0  0  0
  2  4  1  0  0  0  0
  2 17  1  0  0  0  0
  4  5  2  0  0  0  0
  4  9  1  0  0  0  0
  5  6  1  0  0  0  0
  5 39  1  0  0  0  0
  6  7  2  0  0  0  0
  6 40  1  0  0  0  0
  7  8  1  0  0  0  0
  7 41  1  0  0  0  0
  8  9  2  0  0  0  0
  8 42  1  0  0  0  0
  9 10  1  0  0  0  0
 10 11  1  0  0  0  0
 10 43  1  0  0  0  0
 11 12  2  0  0  0  0
 11 16  1  0  0  0  0
 12 13  1  0  0  0  0
 13 14  2  0  0  0  0
 13 20  1  0  0  0  0
 14 15  1  0  0  0  0
 15 16  2  0  0  0  0
 15 44  1  0  0  0  0
 16 35  1  0  0  0  0
 17 18  1  0  0  0  0
 17 19  1  0  0  0  0
 17 45  1  0  0  0  0
 18 46  1  0  0  0  0
 18 47  1  0  0  0  0
 18 48  1  0  0  0  0
 19 49  1  0  0  0  0
 19 50  1  0  0  0  0
 19 51  1  0  0  0  0
 20 21  1  0  0  0  0
 20 52  1  0  0  0  0
 21 22  2  0  0  0  0
 21 26  1  0  0  0  0
 22 23  1  0  0  0  0
 22 27  1  0  0  0  0
 23 24  2  0  0  0  0
 23 53  1  0  0  0  0
 24 25  1  0  0  0  0
 24 29  1  0  0  0  0
 25 26  2  0  0  0  0
 25 36  1  0  0  0  0
 26 54  1  0  0  0  0
 27 28  1  0  0  0  0
 28 37  1  0  0  0  0
 28 38  1  0  0  0  0
 28 55  1  0  0  0  0
 29 30  1  0  0  0  0
 29 34  1  0  0  0  0
 29 56  1  0  0  0  0
 30 31  1  0  0  0  0
 30 57  1  0  0  0  0
 30 58  1  0  0  0  0
 31 32  1  0  0  0  0
 31 59  1  0  0  0  0
 31 60  1  0  0  0  0
 32 33  1  0  0  0  0
 32 61  1  0  0  0  0
 33 34  1  0  0  0  0
 33 62  1  0  0  0  0
 33 63  1  0  0  0  0
 34 64  1  0  0  0  0
 34 65  1  0  0  0  0
 35 66  1  0  0  0  0
 35 67  1  0  0  0  0
 35 68  1  0  0  0  0
 36 69  1  0  0  0  0
 36 70  1  0  0  0  0
 36 71  1  0  0  0  0
 37 72  1  0  0  0  0
 37 73  1  0  0  0  0
 37 74  1  0  0  0  0
 38 75  1  0  0  0  0
 38 76  1  0  0  0  0
 38 77  1  0  0  0  0
M  END
> <From>
www.bindingDB.org

> <BindingDB Reactant_set_id>
51069527

> <Ligand InChI>
InChI=1S/C29H39N5O3S/c1-18(2)37-26-16-23(22-11-13-30-14-12-22)20(5)15-25(26)33-29-31-17-21(6)28(34-29)32-24-9-7-8-10-27(24)38(35,36)19(3)4/h7-10,15-19,22,30H,11-14H2,1-6H3,(H2,31,32,33,34)

> <Ligand InChI Key>
RCSMIXJVDRCRBA-UHFFFAOYSA-N

> <BindingDB MonomerID>
50436869

> <BindingDB Ligand Name>
CHEMBL2403846

> <Target Name Assigned by Curator or DataSource>
ALK tyrosine kinase receptor

> <Target Source Organism According to Curator or DataSource>
Homo sapiens

> <Ki (nM)>


> <IC50 (nM)>
 41

> <Kd (nM)>


> <EC50 (nM)>


> <kon (M-1-s-1)>


> <koff (s-1)>


> <pH>


> <Temp C>


> <Curation/DataSource>
ChEMBL

> <Article DOI>
10.1021/jm400402q

> <PMID>
23742252

> <PubChem AID>


> <Patent Number>


> <Authors>
Marsilje, TH; Pei, W; Chen, B; Lu, W; Uno, T; Jin, Y; Jiang, T; Kim, S; Li, N; Warmuth, M; Sarkisova, Y; Sun, F; Steffy, A; Pferdekamper, AC; Li, AG; Joseph, SB; Kim, Y; Liu, B; Tuntland, T; Cui, X; Gray, NS; Steensma, R; Wan, Y; Jiang, J; Chopiuk, G; Li, J; Gordon, WP; Richmond, W; Johnson, K; Chang, J; Groessl, T; He, YQ; Phimister, A; Aycinena, A; Lee, CC; Bursulaya, B; Karanewsky, DS; Seidel, HM; Harris, JL; Michellys, PY

> <Institution>
Genomics Institute of the Novartis Research Foundation 

> <Link to Ligand in BindingDB>
http://www.bindingdb.org/bind/chemsearch/marvin/MolStructure.jsp?monomerid=50436869

> <Link to Ligand-Target Pair in BindingDB>
http://www.bindingdb.org/jsp/dbsearch/PrimarySearch_ki.jsp?energyterm=kJ/mole&tag=pol&polymerid=5809&target=ALK+tyrosine+kinase+receptor&column=ki&startPg=0&Increment=50&submit=Search

> <Link to Ligand-Target Pair in BindingDB>
http://www.bindingdb.org/jsp/dbsearch/PrimarySearch_ki.jsp?energyterm=kJ/mole&tag=r21&monomerid=50436869&enzyme=ALK+tyrosine+kinase+receptor&column=ki&startPg=0&Increment=50&submit=Search

> <Ligand HET ID in PDB>


> <PDB ID(s) for Ligand-Target Complex>


> <PubChem CID>
71764054

> <PubChem SID>
175449186

> <ChEBI ID of Ligand>


> <ChEMBL ID of Ligand>
CHEMBL2403846

> <DrugBank ID of Ligand>


> <IUPHAR_GRAC ID of Ligand>


> <KEGG ID of Ligand>


> <ZINC ID of Ligand>
ZINC96272792

> <Number of Protein Chains in Target (>1 implies a multichain complex)>
1

> <BindingDB Target Chain Sequence>
MGAIGLLWLLPLLLSTAAVGSGMGTGQRAGSPAAGPPLQPREPLSYSRLQRKSLAVDFVVPSLFRVYARDLLLPPSSSELKAGRPEARGSLALDCAPLLRLLGPAPGVSWTAGSPAPAEARTLSRVLKGGSVRKLRRAKQLVLELGEEAILEGCVGPPGEAAVGLLQFNLSELFSWWIRQGEGRLRIRLMPEKKASEVGREGRLSAAIRASQPRLLFQIFGTGHSSLESPTNMPSPSPDYFTWNLTWIMKDSFPFLSHRSRYGLECSFDFPCELEYSPPLHDLRNQSWSWRRIPSEEASQMDLLDGPGAERSKEMPRGSFLLLNTSADSKHTILSPWMRSSSEHCTLAVSVHRHLQPSGRYIAQLLPHNEAAREILLMPTPGKHGWTVLQGRIGRPDNPFRVALEYISSGNRSLSAVDFFALKNCSEGTSPGSKMALQSSFTCWNGTVLQLGQACDFHQDCAQGEDESQMCRKLPVGFYCNFEDGFCGWTQGTLSPHTPQWQVRTLKDARFQDHQDHALLLSTTDVPASESATVTSATFPAPIKSSPCELRMSWLIRGVLRGNVSLVLVENKTGKEQGRMVWHVAAYEGLSLWQWMVLPLLDVSDRFWLQMVAWWGQGSRAIVAFDNISISLDCYLTISGEDKILQNTAPKSRNLFERNPNKELKPGENSPRQTPIFDPTVHWLFTTCGASGPHGPTQAQCNNAYQNSNLSVEVGSEGPLKGIQIWKVPATDTYSISGYGAAGGKGGKNTMMRSHGVSVLGIFNLEKDDMLYILVGQQGEDACPSTNQLIQKVCIGENNVIEEEIRVNRSVHEWAGGGGGGGGATYVFKMKDGVPVPLIIAAGGGGRAYGAKTDTFHPERLENNSSVLGLNGNSGAAGGGGGWNDNTSLLWAGKSLQEGATGGHSCPQAMKKWGWETRGGFGGGGGGCSSGGGGGGYIGGNAASNNDPEMDGEDGVSFISPLGILYTPALKVMEGHGEVNIKHYLNCSHCEVDECHMDPESHKVICFCDHGTVLAEDGVSCIVSPTPEPHLPLSLILSVVTSALVAALVLAFSGIMIVYRRKHQELQAMQMELQSPEYKLSKLRTSTIMTDYNPNYCFAGKTSSISDLKEVPRKNITLIRGLGHGAFGEVYEGQVSGMPNDPSPLQVAVKTLPEVCSEQDELDFLMEALIISKFNHQNIVRCIGVSLQSLPRFILLELMAGGDLKSFLRETRPRPSQPSSLAMLDLLHVARDIACGCQYLEENHFIHRDIAARNCLLTCPGPGRVAKIGDFGMARDIYRASYYRKGGCAMLPVKWMPPEAFMEGIFTSKTDTWSFGVLLWEIFSLGYMPYPSKSNQEVLEFVTSGGRMDPPKNCPGPVYRIMTQCWQHQPEDRPNFAIILERIEYCTQDPDVINTALPIEYGPLVEEEEKVPVRPKDPEGVPPLLVSQQAKREEERSPAAPPPLPTTSSGKAAKKPTAAEISVRVPRGPAVEGGHVNMAFSQSNPPSELHKVHGSRNKPTSLWNPTYGSWFTEKPTKKNNPIAKKEPHDRGNLGLEGSCTVPPNVATGRLPGASLLLEPSSLTANMKEVPLFRLRHFPCGNVNYGYQQQGLPLEAATAPGAGHYEDTILKSKNSMNQPGP

> <PDB ID(s) of Target Chain>
2XB7,2XBA,3AOX,5FTO,5FTQ,6E0R,6EBW,6EDL,6MX8

> <UniProt (SwissProt) Recommended Name of Target Chain>
ALK tyrosine kinase receptor

> <UniProt (SwissProt) Entry Name of Target Chain>
ALK_HUMAN

> <UniProt (SwissProt) Primary ID of Target Chain>
Q9UM73

> <UniProt (SwissProt) Secondary ID(s) of Target Chain>
Q4ZFX9,Q53QQ6,Q53RZ4,Q59FI3,Q9Y4K6

> <UniProt (SwissProt) Alternative ID(s) of Target Chain>


> <UniProt (TrEMBL) Submitted Name of Target Chain>


> <UniProt (TrEMBL) Entry Name of Target Chain>


> <UniProt (TrEMBL) Primary ID of Target Chain>


> <UniProt (TrEMBL) Secondary ID(s) of Target Chain>


> <UniProt (TrEMBL) Alternative ID(s) of Target Chain>


$$$$
BindingDB_50436870_mol_1

Vconf v2.0 Academic SN VC001-00000579
 87 90  0  0  0  0  0  0  0  0999 V2000
   14.7200  -14.5320   -0.5360 O   0  0  0  0  0  0  0  0  0  0  0
   13.1790  -14.7310   -0.1940 S   0  0  0  0  0  0  0  0  0  0  0
   12.5600  -14.1980    1.1710 O   0  0  0  0  0  0  0  0  0  0  0
   12.7340  -16.4080   -0.3590 C   0  0  0  0  0  0  0  0  0  0  0
   13.7150  -17.3220   -0.7860 C   0  0  0  0  0  0  0  0  0  0  0
   13.4020  -18.6800   -0.9490 C   0  0  0  0  0  0  0  0  0  0  0
   12.1020  -19.1310   -0.6820 C   0  0  0  0  0  0  0  0  0  0  0
   11.1190  -18.2230   -0.2570 C   0  0  0  0  0  0  0  0  0  0  0
   11.4140  -16.8470   -0.0930 C   0  0  0  0  0  0  0  0  0  0  0
   10.5260  -15.8900    0.3140 N   0  0  0  0  0  0  0  0  0  0  0
    9.1960  -15.9760    0.5960 C   0  0  0  0  0  0  0  0  0  0  0
    8.4940  -17.1240    0.4590 N   0  0  0  0  0  0  0  0  0  0  0
    7.1740  -17.2350    0.7400 C   0  0  0  0  0  0  0  0  0  0  0
    6.5190  -16.1400    1.1860 N   0  0  0  0  0  0  0  0  0  0  0
    7.1500  -14.9510    1.3370 C   0  0  0  0  0  0  0  0  0  0  0
    8.5190  -14.8220    1.0420 C   0  0  0  0  0  0  0  0  0  0  0
   12.2860  -13.8170   -1.4720 C   0  0  0  0  0  0  0  0  0  0  0
   12.5040  -12.3100   -1.2730 C   0  0  0  0  0  0  0  0  0  0  0
   12.7660  -14.2390   -2.8690 C   0  0  0  0  0  0  0  0  0  0  0
    6.5160  -18.4100    0.6010 N   0  0  0  0  0  0  0  0  0  0  0
    7.1010  -19.5370    0.1270 C   0  0  0  0  0  0  0  0  0  0  0
    7.3000  -20.6490    0.9660 C   0  0  0  0  0  0  0  0  0  0  0
    7.9290  -21.7990    0.4610 C   0  0  0  0  0  0  0  0  0  0  0
    8.3830  -21.8610   -0.8740 C   0  0  0  0  0  0  0  0  0  0  0
    8.1790  -20.7410   -1.7190 C   0  0  0  0  0  0  0  0  0  0  0
    7.5330  -19.5970   -1.2120 C   0  0  0  0  0  0  0  0  0  0  0
    6.9080  -20.6420    2.2690 O   0  0  0  0  0  0  0  0  0  0  0
    7.6520  -19.8860    3.2320 C   0  0  0  0  0  0  0  0  0  0  0
    9.0790  -23.0870   -1.3480 C   0  0  0  0  0  0  0  0  0  0  0
   10.4170  -23.3040   -0.6170 C   0  0  0  0  0  0  0  0  0  0  0
   11.1200  -24.5460   -1.1850 C   0  0  0  0  0  0  0  0  0  0  0
   10.2730  -25.7500   -1.0320 N   0  0  0  0  0  0  0  0  0  0  0
    8.9870  -25.5650   -1.7400 C   0  0  0  0  0  0  0  0  0  0  0
    8.2200  -24.3560   -1.1870 C   0  0  0  0  0  0  0  0  0  0  0
    6.9000  -19.9520    4.5670 C   0  0  0  0  0  0  0  0  0  0  0
    9.0740  -20.4450    3.4100 C   0  0  0  0  0  0  0  0  0  0  0
    8.6440  -20.7300   -3.1190 C   0  0  0  0  0  0  0  0  0  0  0
   10.9400  -26.9480   -1.5880 C   0  0  0  0  0  0  0  0  0  0  0
    9.2140  -13.5320    1.1960 C   0  0  0  0  0  0  0  0  0  0  0
   12.2040  -27.3410   -0.8120 C   0  0  0  0  0  0  0  0  0  0  0
   12.6610  -28.6060   -1.2820 O   0  0  0  0  0  0  0  0  0  0  0
   13.8590  -29.1100   -0.6980 C   0  0  0  0  0  0  0  0  0  0  0
   14.6620  -16.9990   -0.9830 H   0  0  0  0  0  0  0  0  0  0  0
   14.1190  -19.3370   -1.2590 H   0  0  0  0  0  0  0  0  0  0  0
   11.8700  -20.1180   -0.7950 H   0  0  0  0  0  0  0  0  0  0  0
   10.1930  -18.5930   -0.0650 H   0  0  0  0  0  0  0  0  0  0  0
   10.8980  -15.0020    0.4260 H   0  0  0  0  0  0  0  0  0  0  0
    6.6210  -14.1440    1.6700 H   0  0  0  0  0  0  0  0  0  0  0
   11.2200  -14.0280   -1.3890 H   0  0  0  0  0  0  0  0  0  0  0
   11.9720  -11.7530   -2.0450 H   0  0  0  0  0  0  0  0  0  0  0
   12.1260  -12.0160   -0.2940 H   0  0  0  0  0  0  0  0  0  0  0
   13.5690  -12.0840   -1.3300 H   0  0  0  0  0  0  0  0  0  0  0
   12.2330  -13.6680   -3.6300 H   0  0  0  0  0  0  0  0  0  0  0
   13.8360  -14.0530   -2.9610 H   0  0  0  0  0  0  0  0  0  0  0
   12.5710  -15.3010   -3.0180 H   0  0  0  0  0  0  0  0  0  0  0
    5.5890  -18.4550    0.8820 H   0  0  0  0  0  0  0  0  0  0  0
    8.0750  -22.5930    1.0840 H   0  0  0  0  0  0  0  0  0  0  0
    7.3900  -18.7880   -1.8190 H   0  0  0  0  0  0  0  0  0  0  0
    7.7180  -18.8400    2.9320 H   0  0  0  0  0  0  0  0  0  0  0
    9.3110  -23.0000   -2.4090 H   0  0  0  0  0  0  0  0  0  0  0
   10.2480  -23.4500    0.4510 H   0  0  0  0  0  0  0  0  0  0  0
   11.0620  -22.4360   -0.7620 H   0  0  0  0  0  0  0  0  0  0  0
   11.3500  -24.3790   -2.2390 H   0  0  0  0  0  0  0  0  0  0  0
   12.0520  -24.6750   -0.6370 H   0  0  0  0  0  0  0  0  0  0  0
    8.3660  -26.4520   -1.6050 H   0  0  0  0  0  0  0  0  0  0  0
    9.1640  -25.4200   -2.8080 H   0  0  0  0  0  0  0  0  0  0  0
    7.9950  -24.5370   -0.1350 H   0  0  0  0  0  0  0  0  0  0  0
    7.2860  -24.2430   -1.7400 H   0  0  0  0  0  0  0  0  0  0  0
    7.4320  -19.3690    5.3200 H   0  0  0  0  0  0  0  0  0  0  0
    5.8980  -19.5420    4.4400 H   0  0  0  0  0  0  0  0  0  0  0
    6.8250  -20.9870    4.9000 H   0  0  0  0  0  0  0  0  0  0  0
    9.5840  -19.9040    4.2070 H   0  0  0  0  0  0  0  0  0  0  0
    9.0260  -21.5040    3.6650 H   0  0  0  0  0  0  0  0  0  0  0
    9.6370  -20.3220    2.4840 H   0  0  0  0  0  0  0  0  0  0  0
    8.4210  -19.7800   -3.6080 H   0  0  0  0  0  0  0  0  0  0  0
    9.7240  -20.8850   -3.1470 H   0  0  0  0  0  0  0  0  0  0  0
    8.1500  -21.5270   -3.6760 H   0  0  0  0  0  0  0  0  0  0  0
   10.2490  -27.7910   -1.5370 H   0  0  0  0  0  0  0  0  0  0  0
   11.2030  -26.7790   -2.6340 H   0  0  0  0  0  0  0  0  0  0  0
    8.5320  -12.7560    1.5480 H   0  0  0  0  0  0  0  0  0  0  0
   10.0250  -13.6380    1.9180 H   0  0  0  0  0  0  0  0  0  0  0
    9.6290  -13.2220    0.2370 H   0  0  0  0  0  0  0  0  0  0  0
   12.9850  -26.5970   -0.9730 H   0  0  0  0  0  0  0  0  0  0  0
   11.9730  -27.4050    0.2520 H   0  0  0  0  0  0  0  0  0  0  0
   14.0900  -30.0810   -1.1360 H   0  0  0  0  0  0  0  0  0  0  0
   14.6830  -28.4230   -0.8940 H   0  0  0  0  0  0  0  0  0  0  0
   13.7280  -29.2240    0.3780 H   0  0  0  0  0  0  0  0  0  0  0
  1  2  2  0  0  0  0
  2  3  2  0  0  0  0
  2  4  1  0  0  0  0
  2 17  1  0  0  0  0
  4  5  2  0  0  0  0
  4  9  1  0  0  0  0
  5  6  1  0  0  0  0
  5 43  1  0  0  0  0
  6  7  2  0  0  0  0
  6 44  1  0  0  0  0
  7  8  1  0  0  0  0
  7 45  1  0  0  0  0
  8  9  2  0  0  0  0
  8 46  1  0  0  0  0
  9 10  1  0  0  0  0
 10 11  1  0  0  0  0
 10 47  1  0  0  0  0
 11 12  2  0  0  0  0
 11 16  1  0  0  0  0
 12 13  1  0  0  0  0
 13 14  2  0  0  0  0
 13 20  1  0  0  0  0
 14 15  1  0  0  0  0
 15 16  2  0  0  0  0
 15 48  1  0  0  0  0
 16 39  1  0  0  0  0
 17 18  1  0  0  0  0
 17 19  1  0  0  0  0
 17 49  1  0  0  0  0
 18 50  1  0  0  0  0
 18 51  1  0  0  0  0
 18 52  1  0  0  0  0
 19 53  1  0  0  0  0
 19 54  1  0  0  0  0
 19 55  1  0  0  0  0
 20 21  1  0  0  0  0
 20 56  1  0  0  0  0
 21 22  2  0  0  0  0
 21 26  1  0  0  0  0
 22 23  1  0  0  0  0
 22 27  1  0  0  0  0
 23 24  2  0  0  0  0
 23 57  1  0  0  0  0
 24 25  1  0  0  0  0
 24 29  1  0  0  0  0
 25 26  2  0  0  0  0
 25 37  1  0  0  0  0
 26 58  1  0  0  0  0
 27 28  1  0  0  0  0
 28 35  1  0  0  0  0
 28 36  1  0  0  0  0
 28 59  1  0  0  0  0
 29 30  1  0  0  0  0
 29 34  1  0  0  0  0
 29 60  1  0  0  0  0
 30 31  1  0  0  0  0
 30 61  1  0  0  0  0
 30 62  1  0  0  0  0
 31 32  1  0  0  0  0
 31 63  1  0  0  0  0
 31 64  1  0  0  0  0
 32 33  1  0  0  0  0
 32 38  1  0  0  0  0
 33 34  1  0  0  0  0
 33 65  1  0  0  0  0
 33 66  1  0  0  0  0
 34 67  1  0  0  0  0
 34 68  1  0  0  0  0
 35 69  1  0  0  0  0
 35 70  1  0  0  0  0
 35 71  1  0  0  0  0
 36 72  1  0  0  0  0
 36 73  1  0  0  0  0
 36 74  1  0  0  0  0
 37 75  1  0  0  0  0
 37 76  1  0  0  0  0
 37 77  1  0  0  0  0
 38 40  1  0  0  0  0
 38 78  1  0  0  0  0
 38 79  1  0  0  0  0
 39 80  1  0  0  0  0
 39 81  1  0  0  0  0
 39 82  1  0  0  0  0
 40 41  1  0  0  0  0
 40 83  1  0  0  0  0
 40 84  1  0  0  0  0
 41 42  1  0  0  0  0
 42 85  1  0  0  0  0
 42 86  1  0  0  0  0
 42 87  1  0  0  0  0
M  END
> <From>
www.bindingDB.org

> <BindingDB Reactant_set_id>
51069523

> <Ligand InChI>
InChI=1S/C32H45N5O4S/c1-21(2)41-29-19-26(25-12-14-37(15-13-25)16-17-40-7)23(5)18-28(29)35-32-33-20-24(6)31(36-32)34-27-10-8-9-11-30(27)42(38,39)22(3)4/h8-11,18-22,25H,12-17H2,1-7H3,(H2,33,34,35,36)

> <Ligand InChI Key>
UYBILPBKQDAXTL-UHFFFAOYSA-N

> <BindingDB MonomerID>
50436870

> <BindingDB Ligand Name>
CHEMBL2403829

> <Target Name Assigned by Curator or DataSource>
ALK tyrosine kinase receptor

> <Target Source Organism According to Curator or DataSource>
Homo sapiens

> <Ki (nM)>


> <IC50 (nM)>
 44

> <Kd (nM)>


> <EC50 (nM)>


> <kon (M-1-s-1)>


> <koff (s-1)>


> <pH>


> <Temp C>


> <Curation/DataSource>
ChEMBL

> <Article DOI>
10.1021/jm400402q

> <PMID>
23742252

> <PubChem AID>


> <Patent Number>


> <Authors>
Marsilje, TH; Pei, W; Chen, B; Lu, W; Uno, T; Jin, Y; Jiang, T; Kim, S; Li, N; Warmuth, M; Sarkisova, Y; Sun, F; Steffy, A; Pferdekamper, AC; Li, AG; Joseph, SB; Kim, Y; Liu, B; Tuntland, T; Cui, X; Gray, NS; Steensma, R; Wan, Y; Jiang, J; Chopiuk, G; Li, J; Gordon, WP; Richmond, W; Johnson, K; Chang, J; Groessl, T; He, YQ; Phimister, A; Aycinena, A; Lee, CC; Bursulaya, B; Karanewsky, DS; Seidel, HM; Harris, JL; Michellys, PY

> <Institution>
Genomics Institute of the Novartis Research Foundation 

> <Link to Ligand in BindingDB>
http://www.bindingdb.org/bind/chemsearch/marvin/MolStructure.jsp?monomerid=50436870

> <Link to Ligand-Target Pair in BindingDB>
http://www.bindingdb.org/jsp/dbsearch/PrimarySearch_ki.jsp?energyterm=kJ/mole&tag=pol&polymerid=5809&target=ALK+tyrosine+kinase+receptor&column=ki&startPg=0&Increment=50&submit=Search

> <Link to Ligand-Target Pair in BindingDB>
http://www.bindingdb.org/jsp/dbsearch/PrimarySearch_ki.jsp?energyterm=kJ/mole&tag=r21&monomerid=50436870&enzyme=ALK+tyrosine+kinase+receptor&column=ki&startPg=0&Increment=50&submit=Search

> <Ligand HET ID in PDB>


> <PDB ID(s) for Ligand-Target Complex>


> <PubChem CID>
71764604

> <PubChem SID>
175449187

> <ChEBI ID of Ligand>


> <ChEMBL ID of Ligand>
CHEMBL2403829

> <DrugBank ID of Ligand>


> <IUPHAR_GRAC ID of Ligand>


> <KEGG ID of Ligand>


> <ZINC ID of Ligand>
ZINC96272793

> <Number of Protein Chains in Target (>1 implies a multichain complex)>
1

> <BindingDB Target Chain Sequence>
MGAIGLLWLLPLLLSTAAVGSGMGTGQRAGSPAAGPPLQPREPLSYSRLQRKSLAVDFVVPSLFRVYARDLLLPPSSSELKAGRPEARGSLALDCAPLLRLLGPAPGVSWTAGSPAPAEARTLSRVLKGGSVRKLRRAKQLVLELGEEAILEGCVGPPGEAAVGLLQFNLSELFSWWIRQGEGRLRIRLMPEKKASEVGREGRLSAAIRASQPRLLFQIFGTGHSSLESPTNMPSPSPDYFTWNLTWIMKDSFPFLSHRSRYGLECSFDFPCELEYSPPLHDLRNQSWSWRRIPSEEASQMDLLDGPGAERSKEMPRGSFLLLNTSADSKHTILSPWMRSSSEHCTLAVSVHRHLQPSGRYIAQLLPHNEAAREILLMPTPGKHGWTVLQGRIGRPDNPFRVALEYISSGNRSLSAVDFFALKNCSEGTSPGSKMALQSSFTCWNGTVLQLGQACDFHQDCAQGEDESQMCRKLPVGFYCNFEDGFCGWTQGTLSPHTPQWQVRTLKDARFQDHQDHALLLSTTDVPASESATVTSATFPAPIKSSPCELRMSWLIRGVLRGNVSLVLVENKTGKEQGRMVWHVAAYEGLSLWQWMVLPLLDVSDRFWLQMVAWWGQGSRAIVAFDNISISLDCYLTISGEDKILQNTAPKSRNLFERNPNKELKPGENSPRQTPIFDPTVHWLFTTCGASGPHGPTQAQCNNAYQNSNLSVEVGSEGPLKGIQIWKVPATDTYSISGYGAAGGKGGKNTMMRSHGVSVLGIFNLEKDDMLYILVGQQGEDACPSTNQLIQKVCIGENNVIEEEIRVNRSVHEWAGGGGGGGGATYVFKMKDGVPVPLIIAAGGGGRAYGAKTDTFHPERLENNSSVLGLNGNSGAAGGGGGWNDNTSLLWAGKSLQEGATGGHSCPQAMKKWGWETRGGFGGGGGGCSSGGGGGGYIGGNAASNNDPEMDGEDGVSFISPLGILYTPALKVMEGHGEVNIKHYLNCSHCEVDECHMDPESHKVICFCDHGTVLAEDGVSCIVSPTPEPHLPLSLILSVVTSALVAALVLAFSGIMIVYRRKHQELQAMQMELQSPEYKLSKLRTSTIMTDYNPNYCFAGKTSSISDLKEVPRKNITLIRGLGHGAFGEVYEGQVSGMPNDPSPLQVAVKTLPEVCSEQDELDFLMEALIISKFNHQNIVRCIGVSLQSLPRFILLELMAGGDLKSFLRETRPRPSQPSSLAMLDLLHVARDIACGCQYLEENHFIHRDIAARNCLLTCPGPGRVAKIGDFGMARDIYRASYYRKGGCAMLPVKWMPPEAFMEGIFTSKTDTWSFGVLLWEIFSLGYMPYPSKSNQEVLEFVTSGGRMDPPKNCPGPVYRIMTQCWQHQPEDRPNFAIILERIEYCTQDPDVINTALPIEYGPLVEEEEKVPVRPKDPEGVPPLLVSQQAKREEERSPAAPPPLPTTSSGKAAKKPTAAEISVRVPRGPAVEGGHVNMAFSQSNPPSELHKVHGSRNKPTSLWNPTYGSWFTEKPTKKNNPIAKKEPHDRGNLGLEGSCTVPPNVATGRLPGASLLLEPSSLTANMKEVPLFRLRHFPCGNVNYGYQQQGLPLEAATAPGAGHYEDTILKSKNSMNQPGP

> <PDB ID(s) of Target Chain>
2XB7,2XBA,3AOX,5FTO,5FTQ,6E0R,6EBW,6EDL,6MX8

> <UniProt (SwissProt) Recommended Name of Target Chain>
ALK tyrosine kinase receptor

> <UniProt (SwissProt) Entry Name of Target Chain>
ALK_HUMAN

> <UniProt (SwissProt) Primary ID of Target Chain>
Q9UM73

> <UniProt (SwissProt) Secondary ID(s) of Target Chain>
Q4ZFX9,Q53QQ6,Q53RZ4,Q59FI3,Q9Y4K6

> <UniProt (SwissProt) Alternative ID(s) of Target Chain>


> <UniProt (TrEMBL) Submitted Name of Target Chain>


> <UniProt (TrEMBL) Entry Name of Target Chain>


> <UniProt (TrEMBL) Primary ID of Target Chain>


> <UniProt (TrEMBL) Secondary ID(s) of Target Chain>


> <UniProt (TrEMBL) Alternative ID(s) of Target Chain>


$$$$
BindingDB_50436871_mol_1

Vconf v2.0 Academic SN VC001-00000579
 84 87  0  0  0  0  0  0  0  0999 V2000
   17.0490  -30.4830   -0.5630 O   0  0  0  0  0  0  0  0  0  0  0
   15.4870  -30.5290   -0.2650 S   0  0  0  0  0  0  0  0  0  0  0
   14.9430  -29.9290    1.1040 O   0  0  0  0  0  0  0  0  0  0  0
   14.9060  -32.1490   -0.5450 C   0  0  0  0  0  0  0  0  0  0  0
   15.7320  -33.0100   -1.2940 C   0  0  0  0  0  0  0  0  0  0  0
   15.2990  -34.3000   -1.6360 C   0  0  0  0  0  0  0  0  0  0  0
   14.0320  -34.7370   -1.2280 C   0  0  0  0  0  0  0  0  0  0  0
   13.2050  -33.8850   -0.4790 C   0  0  0  0  0  0  0  0  0  0  0
   13.6220  -32.5780   -0.1260 C   0  0  0  0  0  0  0  0  0  0  0
   12.8710  -31.6980    0.6040 N   0  0  0  0  0  0  0  0  0  0  0
   11.5470  -31.7360    0.9330 C   0  0  0  0  0  0  0  0  0  0  0
   10.7150  -32.6580    0.3960 N   0  0  0  0  0  0  0  0  0  0  0
    9.3830  -32.7090    0.6380 C   0  0  0  0  0  0  0  0  0  0  0
    8.8480  -31.7870    1.4690 N   0  0  0  0  0  0  0  0  0  0  0
    9.6120  -30.8320    2.0510 C   0  0  0  0  0  0  0  0  0  0  0
   10.9920  -30.7640    1.7940 C   0  0  0  0  0  0  0  0  0  0  0
   14.7990  -29.4680   -1.5600 C   0  0  0  0  0  0  0  0  0  0  0
   15.2000  -29.9790   -2.9540 C   0  0  0  0  0  0  0  0  0  0  0
   13.2690  -29.3650   -1.4630 C   0  0  0  0  0  0  0  0  0  0  0
   11.9130  -29.5420    2.5200 Cl  0  0  0  0  0  0  0  0  0  0  0
    8.5850  -33.6170    0.0280 N   0  0  0  0  0  0  0  0  0  0  0
    9.0660  -34.5420   -0.8370 C   0  0  0  0  0  0  0  0  0  0  0
    8.9370  -34.3830   -2.2320 C   0  0  0  0  0  0  0  0  0  0  0
    9.5140  -35.3330   -3.0900 C   0  0  0  0  0  0  0  0  0  0  0
   10.2380  -36.4380   -2.5920 C   0  0  0  0  0  0  0  0  0  0  0
   10.3430  -36.6070   -1.1890 C   0  0  0  0  0  0  0  0  0  0  0
    9.7490  -35.6620   -0.3280 C   0  0  0  0  0  0  0  0  0  0  0
    8.2830  -33.3390   -2.8170 O   0  0  0  0  0  0  0  0  0  0  0
    8.7240  -31.9830   -2.6660 C   0  0  0  0  0  0  0  0  0  0  0
   10.8940  -37.3640   -3.5550 C   0  0  0  0  0  0  0  0  0  0  0
    9.8850  -38.0160   -4.5220 C   0  0  0  0  0  0  0  0  0  0  0
   10.6180  -38.9380   -5.5090 C   0  0  0  0  0  0  0  0  0  0  0
   11.6290  -38.1760   -6.2750 N   0  0  0  0  0  0  0  0  0  0  0
   12.6410  -37.6200   -5.3550 C   0  0  0  0  0  0  0  0  0  0  0
   11.9830  -36.6400   -4.3730 C   0  0  0  0  0  0  0  0  0  0  0
   10.2020  -31.8050   -3.0540 C   0  0  0  0  0  0  0  0  0  0  0
    7.8440  -31.1080   -3.5680 C   0  0  0  0  0  0  0  0  0  0  0
   11.0870  -37.7350   -0.5990 C   0  0  0  0  0  0  0  0  0  0  0
   12.2880  -39.0320   -7.2830 C   0  0  0  0  0  0  0  0  0  0  0
   11.3700  -39.2750   -8.4880 C   0  0  0  0  0  0  0  0  0  0  0
   12.0940  -39.9710   -9.4990 O   0  0  0  0  0  0  0  0  0  0  0
   11.3910  -40.2320  -10.7100 C   0  0  0  0  0  0  0  0  0  0  0
   16.6500  -32.6910   -1.6060 H   0  0  0  0  0  0  0  0  0  0  0
   15.9030  -34.9150   -2.1820 H   0  0  0  0  0  0  0  0  0  0  0
   13.7120  -35.6750   -1.4690 H   0  0  0  0  0  0  0  0  0  0  0
   12.3070  -34.2490   -0.1750 H   0  0  0  0  0  0  0  0  0  0  0
   13.3400  -30.9120    0.9180 H   0  0  0  0  0  0  0  0  0  0  0
    9.1680  -30.1550    2.6740 H   0  0  0  0  0  0  0  0  0  0  0
   15.2180  -28.4710   -1.4260 H   0  0  0  0  0  0  0  0  0  0  0
   14.8670  -29.2720   -3.7140 H   0  0  0  0  0  0  0  0  0  0  0
   16.2840  -30.0760   -3.0080 H   0  0  0  0  0  0  0  0  0  0  0
   14.7420  -30.9500   -3.1420 H   0  0  0  0  0  0  0  0  0  0  0
   12.9070  -28.6240   -2.1760 H   0  0  0  0  0  0  0  0  0  0  0
   12.8100  -30.3270   -1.6900 H   0  0  0  0  0  0  0  0  0  0  0
   12.9870  -29.0570   -0.4570 H   0  0  0  0  0  0  0  0  0  0  0
    7.6300  -33.5790    0.1910 H   0  0  0  0  0  0  0  0  0  0  0
    9.4270  -35.2000   -4.0970 H   0  0  0  0  0  0  0  0  0  0  0
    9.8420  -35.7710    0.6830 H   0  0  0  0  0  0  0  0  0  0  0
    8.5800  -31.6470   -1.6410 H   0  0  0  0  0  0  0  0  0  0  0
   11.3890  -38.1760   -3.0240 H   0  0  0  0  0  0  0  0  0  0  0
    9.3540  -37.2540   -5.0930 H   0  0  0  0  0  0  0  0  0  0  0
    9.1630  -38.6050   -3.9540 H   0  0  0  0  0  0  0  0  0  0  0
   11.0940  -39.7520   -4.9600 H   0  0  0  0  0  0  0  0  0  0  0
    9.8750  -39.3580   -6.1850 H   0  0  0  0  0  0  0  0  0  0  0
   13.1310  -38.4220   -4.8000 H   0  0  0  0  0  0  0  0  0  0  0
   13.3950  -37.0740   -5.9260 H   0  0  0  0  0  0  0  0  0  0  0
   11.5490  -35.8170   -4.9420 H   0  0  0  0  0  0  0  0  0  0  0
   12.7460  -36.2460   -3.7000 H   0  0  0  0  0  0  0  0  0  0  0
   10.4700  -30.7490   -3.0100 H   0  0  0  0  0  0  0  0  0  0  0
   10.8350  -32.3570   -2.3590 H   0  0  0  0  0  0  0  0  0  0  0
   10.3650  -32.1790   -4.0650 H   0  0  0  0  0  0  0  0  0  0  0
    8.1330  -30.0610   -3.4660 H   0  0  0  0  0  0  0  0  0  0  0
    7.9570  -31.4150   -4.6080 H   0  0  0  0  0  0  0  0  0  0  0
    6.8000  -31.2190   -3.2730 H   0  0  0  0  0  0  0  0  0  0  0
   11.0650  -37.7020    0.4920 H   0  0  0  0  0  0  0  0  0  0  0
   10.6460  -38.6770   -0.9250 H   0  0  0  0  0  0  0  0  0  0  0
   12.1280  -37.6920   -0.9220 H   0  0  0  0  0  0  0  0  0  0  0
   13.1860  -38.5350   -7.6530 H   0  0  0  0  0  0  0  0  0  0  0
   12.5780  -39.9880   -6.8430 H   0  0  0  0  0  0  0  0  0  0  0
   10.5080  -39.8700   -8.1900 H   0  0  0  0  0  0  0  0  0  0  0
   11.0310  -38.3140   -8.8770 H   0  0  0  0  0  0  0  0  0  0  0
   12.0400  -40.7800  -11.3920 H   0  0  0  0  0  0  0  0  0  0  0
   10.5020  -40.8300  -10.5030 H   0  0  0  0  0  0  0  0  0  0  0
   11.0950  -39.2910  -11.1760 H   0  0  0  0  0  0  0  0  0  0  0
  1  2  2  0  0  0  0
  2  3  2  0  0  0  0
  2  4  1  0  0  0  0
  2 17  1  0  0  0  0
  4  5  2  0  0  0  0
  4  9  1  0  0  0  0
  5  6  1  0  0  0  0
  5 43  1  0  0  0  0
  6  7  2  0  0  0  0
  6 44  1  0  0  0  0
  7  8  1  0  0  0  0
  7 45  1  0  0  0  0
  8  9  2  0  0  0  0
  8 46  1  0  0  0  0
  9 10  1  0  0  0  0
 10 11  1  0  0  0  0
 10 47  1  0  0  0  0
 11 12  2  0  0  0  0
 11 16  1  0  0  0  0
 12 13  1  0  0  0  0
 13 14  2  0  0  0  0
 13 21  1  0  0  0  0
 14 15  1  0  0  0  0
 15 16  2  0  0  0  0
 15 48  1  0  0  0  0
 16 20  1  0  0  0  0
 17 18  1  0  0  0  0
 17 19  1  0  0  0  0
 17 49  1  0  0  0  0
 18 50  1  0  0  0  0
 18 51  1  0  0  0  0
 18 52  1  0  0  0  0
 19 53  1  0  0  0  0
 19 54  1  0  0  0  0
 19 55  1  0  0  0  0
 21 22  1  0  0  0  0
 21 56  1  0  0  0  0
 22 23  2  0  0  0  0
 22 27  1  0  0  0  0
 23 24  1  0  0  0  0
 23 28  1  0  0  0  0
 24 25  2  0  0  0  0
 24 57  1  0  0  0  0
 25 26  1  0  0  0  0
 25 30  1  0  0  0  0
 26 27  2  0  0  0  0
 26 38  1  0  0  0  0
 27 58  1  0  0  0  0
 28 29  1  0  0  0  0
 29 36  1  0  0  0  0
 29 37  1  0  0  0  0
 29 59  1  0  0  0  0
 30 31  1  0  0  0  0
 30 35  1  0  0  0  0
 30 60  1  0  0  0  0
 31 32  1  0  0  0  0
 31 61  1  0  0  0  0
 31 62  1  0  0  0  0
 32 33  1  0  0  0  0
 32 63  1  0  0  0  0
 32 64  1  0  0  0  0
 33 34  1  0  0  0  0
 33 39  1  0  0  0  0
 34 35  1  0  0  0  0
 34 65  1  0  0  0  0
 34 66  1  0  0  0  0
 35 67  1  0  0  0  0
 35 68  1  0  0  0  0
 36 69  1  0  0  0  0
 36 70  1  0  0  0  0
 36 71  1  0  0  0  0
 37 72  1  0  0  0  0
 37 73  1  0  0  0  0
 37 74  1  0  0  0  0
 38 75  1  0  0  0  0
 38 76  1  0  0  0  0
 38 77  1  0  0  0  0
 39 40  1  0  0  0  0
 39 78  1  0  0  0  0
 39 79  1  0  0  0  0
 40 41  1  0  0  0  0
 40 80  1  0  0  0  0
 40 81  1  0  0  0  0
 41 42  1  0  0  0  0
 42 82  1  0  0  0  0
 42 83  1  0  0  0  0
 42 84  1  0  0  0  0
M  END
> <From>
www.bindingDB.org

> <BindingDB Reactant_set_id>
51069525

> <Ligand InChI>
InChI=1S/C31H42ClN5O4S/c1-20(2)41-28-18-24(23-11-13-37(14-12-23)15-16-40-6)22(5)17-27(28)35-31-33-19-25(32)30(36-31)34-26-9-7-8-10-29(26)42(38,39)21(3)4/h7-10,17-21,23H,11-16H2,1-6H3,(H2,33,34,35,36)

> <Ligand InChI Key>
OOXXIVRLCXQRPS-UHFFFAOYSA-N

> <BindingDB MonomerID>
50436871

> <BindingDB Ligand Name>
CHEMBL2403837

> <Target Name Assigned by Curator or DataSource>
ALK tyrosine kinase receptor

> <Target Source Organism According to Curator or DataSource>
Homo sapiens

> <Ki (nM)>


> <IC50 (nM)>
 44

> <Kd (nM)>


> <EC50 (nM)>


> <kon (M-1-s-1)>


> <koff (s-1)>


> <pH>


> <Temp C>


> <Curation/DataSource>
ChEMBL

> <Article DOI>
10.1021/jm400402q

> <PMID>
23742252

> <PubChem AID>


> <Patent Number>


> <Authors>
Marsilje, TH; Pei, W; Chen, B; Lu, W; Uno, T; Jin, Y; Jiang, T; Kim, S; Li, N; Warmuth, M; Sarkisova, Y; Sun, F; Steffy, A; Pferdekamper, AC; Li, AG; Joseph, SB; Kim, Y; Liu, B; Tuntland, T; Cui, X; Gray, NS; Steensma, R; Wan, Y; Jiang, J; Chopiuk, G; Li, J; Gordon, WP; Richmond, W; Johnson, K; Chang, J; Groessl, T; He, YQ; Phimister, A; Aycinena, A; Lee, CC; Bursulaya, B; Karanewsky, DS; Seidel, HM; Harris, JL; Michellys, PY

> <Institution>
Genomics Institute of the Novartis Research Foundation 

> <Link to Ligand in BindingDB>
http://www.bindingdb.org/bind/chemsearch/marvin/MolStructure.jsp?monomerid=50436871

> <Link to Ligand-Target Pair in BindingDB>
http://www.bindingdb.org/jsp/dbsearch/PrimarySearch_ki.jsp?energyterm=kJ/mole&tag=pol&polymerid=5809&target=ALK+tyrosine+kinase+receptor&column=ki&startPg=0&Increment=50&submit=Search

> <Link to Ligand-Target Pair in BindingDB>
http://www.bindingdb.org/jsp/dbsearch/PrimarySearch_ki.jsp?energyterm=kJ/mole&tag=r21&monomerid=50436871&enzyme=ALK+tyrosine+kinase+receptor&column=ki&startPg=0&Increment=50&submit=Search

> <Ligand HET ID in PDB>


> <PDB ID(s) for Ligand-Target Complex>


> <PubChem CID>
25160155

> <PubChem SID>
175449188

> <ChEBI ID of Ligand>


> <ChEMBL ID of Ligand>
CHEMBL2403837

> <DrugBank ID of Ligand>


> <IUPHAR_GRAC ID of Ligand>


> <KEGG ID of Ligand>


> <ZINC ID of Ligand>
ZINC96272794

> <Number of Protein Chains in Target (>1 implies a multichain complex)>
1

> <BindingDB Target Chain Sequence>
MGAIGLLWLLPLLLSTAAVGSGMGTGQRAGSPAAGPPLQPREPLSYSRLQRKSLAVDFVVPSLFRVYARDLLLPPSSSELKAGRPEARGSLALDCAPLLRLLGPAPGVSWTAGSPAPAEARTLSRVLKGGSVRKLRRAKQLVLELGEEAILEGCVGPPGEAAVGLLQFNLSELFSWWIRQGEGRLRIRLMPEKKASEVGREGRLSAAIRASQPRLLFQIFGTGHSSLESPTNMPSPSPDYFTWNLTWIMKDSFPFLSHRSRYGLECSFDFPCELEYSPPLHDLRNQSWSWRRIPSEEASQMDLLDGPGAERSKEMPRGSFLLLNTSADSKHTILSPWMRSSSEHCTLAVSVHRHLQPSGRYIAQLLPHNEAAREILLMPTPGKHGWTVLQGRIGRPDNPFRVALEYISSGNRSLSAVDFFALKNCSEGTSPGSKMALQSSFTCWNGTVLQLGQACDFHQDCAQGEDESQMCRKLPVGFYCNFEDGFCGWTQGTLSPHTPQWQVRTLKDARFQDHQDHALLLSTTDVPASESATVTSATFPAPIKSSPCELRMSWLIRGVLRGNVSLVLVENKTGKEQGRMVWHVAAYEGLSLWQWMVLPLLDVSDRFWLQMVAWWGQGSRAIVAFDNISISLDCYLTISGEDKILQNTAPKSRNLFERNPNKELKPGENSPRQTPIFDPTVHWLFTTCGASGPHGPTQAQCNNAYQNSNLSVEVGSEGPLKGIQIWKVPATDTYSISGYGAAGGKGGKNTMMRSHGVSVLGIFNLEKDDMLYILVGQQGEDACPSTNQLIQKVCIGENNVIEEEIRVNRSVHEWAGGGGGGGGATYVFKMKDGVPVPLIIAAGGGGRAYGAKTDTFHPERLENNSSVLGLNGNSGAAGGGGGWNDNTSLLWAGKSLQEGATGGHSCPQAMKKWGWETRGGFGGGGGGCSSGGGGGGYIGGNAASNNDPEMDGEDGVSFISPLGILYTPALKVMEGHGEVNIKHYLNCSHCEVDECHMDPESHKVICFCDHGTVLAEDGVSCIVSPTPEPHLPLSLILSVVTSALVAALVLAFSGIMIVYRRKHQELQAMQMELQSPEYKLSKLRTSTIMTDYNPNYCFAGKTSSISDLKEVPRKNITLIRGLGHGAFGEVYEGQVSGMPNDPSPLQVAVKTLPEVCSEQDELDFLMEALIISKFNHQNIVRCIGVSLQSLPRFILLELMAGGDLKSFLRETRPRPSQPSSLAMLDLLHVARDIACGCQYLEENHFIHRDIAARNCLLTCPGPGRVAKIGDFGMARDIYRASYYRKGGCAMLPVKWMPPEAFMEGIFTSKTDTWSFGVLLWEIFSLGYMPYPSKSNQEVLEFVTSGGRMDPPKNCPGPVYRIMTQCWQHQPEDRPNFAIILERIEYCTQDPDVINTALPIEYGPLVEEEEKVPVRPKDPEGVPPLLVSQQAKREEERSPAAPPPLPTTSSGKAAKKPTAAEISVRVPRGPAVEGGHVNMAFSQSNPPSELHKVHGSRNKPTSLWNPTYGSWFTEKPTKKNNPIAKKEPHDRGNLGLEGSCTVPPNVATGRLPGASLLLEPSSLTANMKEVPLFRLRHFPCGNVNYGYQQQGLPLEAATAPGAGHYEDTILKSKNSMNQPGP

> <PDB ID(s) of Target Chain>
2XB7,2XBA,3AOX,5FTO,5FTQ,6E0R,6EBW,6EDL,6MX8

> <UniProt (SwissProt) Recommended Name of Target Chain>
ALK tyrosine kinase receptor

> <UniProt (SwissProt) Entry Name of Target Chain>
ALK_HUMAN

> <UniProt (SwissProt) Primary ID of Target Chain>
Q9UM73

> <UniProt (SwissProt) Secondary ID(s) of Target Chain>
Q4ZFX9,Q53QQ6,Q53RZ4,Q59FI3,Q9Y4K6

> <UniProt (SwissProt) Alternative ID(s) of Target Chain>


> <UniProt (TrEMBL) Submitted Name of Target Chain>


> <UniProt (TrEMBL) Entry Name of Target Chain>


> <UniProt (TrEMBL) Primary ID of Target Chain>


> <UniProt (TrEMBL) Secondary ID(s) of Target Chain>


> <UniProt (TrEMBL) Alternative ID(s) of Target Chain>


$$$$
BindingDB_50436872_mol_1

Vconf v2.0 Academic SN VC001-00000579
 80 83  0  0  0  0  0  0  0  0999 V2000
    1.3330   -3.0770   -3.0260 O   0  0  0  0  0  0  0  0  0  0  0
    0.3840   -2.6110   -1.8380 S   0  0  0  0  0  0  0  0  0  0  0
    0.9760   -1.8390   -0.5780 O   0  0  0  0  0  0  0  0  0  0  0
   -0.5630   -3.9530   -1.2590 C   0  0  0  0  0  0  0  0  0  0  0
   -0.4360   -5.1890   -1.9230 C   0  0  0  0  0  0  0  0  0  0  0
   -1.1900   -6.2970   -1.5140 C   0  0  0  0  0  0  0  0  0  0  0
   -2.0780   -6.1740   -0.4380 C   0  0  0  0  0  0  0  0  0  0  0
   -2.2110   -4.9440    0.2240 C   0  0  0  0  0  0  0  0  0  0  0
   -1.4590   -3.8110   -0.1730 C   0  0  0  0  0  0  0  0  0  0  0
   -1.5070   -2.5800    0.4290 N   0  0  0  0  0  0  0  0  0  0  0
   -2.3040   -2.1210    1.4370 C   0  0  0  0  0  0  0  0  0  0  0
   -3.3070   -2.8740    1.9460 N   0  0  0  0  0  0  0  0  0  0  0
   -4.1170   -2.4770    2.9530 C   0  0  0  0  0  0  0  0  0  0  0
   -3.9170   -1.2530    3.4900 N   0  0  0  0  0  0  0  0  0  0  0
   -2.9470   -0.4280    3.0270 C   0  0  0  0  0  0  0  0  0  0  0
   -2.1080   -0.8300    1.9730 C   0  0  0  0  0  0  0  0  0  0  0
   -0.7810   -1.4460   -2.5820 C   0  0  0  0  0  0  0  0  0  0  0
   -0.0360   -0.1660   -2.9850 C   0  0  0  0  0  0  0  0  0  0  0
   -1.4640   -2.0620   -3.8130 C   0  0  0  0  0  0  0  0  0  0  0
   -0.9070    0.2270    1.4130 Cl  0  0  0  0  0  0  0  0  0  0  0
   -5.1190   -3.2620    3.4180 N   0  0  0  0  0  0  0  0  0  0  0
   -5.4820   -4.4400    2.8500 C   0  0  0  0  0  0  0  0  0  0  0
   -5.9640   -4.4990    1.5250 C   0  0  0  0  0  0  0  0  0  0  0
   -6.2940   -5.7380    0.9570 C   0  0  0  0  0  0  0  0  0  0  0
   -6.2020   -6.9340    1.6990 C   0  0  0  0  0  0  0  0  0  0  0
   -5.7570   -6.8690    3.0450 C   0  0  0  0  0  0  0  0  0  0  0
   -5.3960   -5.6240    3.6020 C   0  0  0  0  0  0  0  0  0  0  0
   -6.1110   -3.3820    0.7600 O   0  0  0  0  0  0  0  0  0  0  0
   -7.0670   -2.3800    1.1320 C   0  0  0  0  0  0  0  0  0  0  0
   -6.5910   -8.2160    1.0470 C   0  0  0  0  0  0  0  0  0  0  0
   -8.0540   -8.1970    0.5550 C   0  0  0  0  0  0  0  0  0  0  0
   -8.4020   -9.5400   -0.1030 C   0  0  0  0  0  0  0  0  0  0  0
   -7.5070   -9.8010   -1.2500 N   0  0  0  0  0  0  0  0  0  0  0
   -6.1070   -9.8940   -0.7800 C   0  0  0  0  0  0  0  0  0  0  0
   -5.6660   -8.5670   -0.1370 C   0  0  0  0  0  0  0  0  0  0  0
   -6.7970   -1.1270    0.2890 C   0  0  0  0  0  0  0  0  0  0  0
   -8.5030   -2.8760    0.8960 C   0  0  0  0  0  0  0  0  0  0  0
   -5.6630   -8.0770    3.8860 C   0  0  0  0  0  0  0  0  0  0  0
   -7.9490  -11.0380   -1.9350 C   0  0  0  0  0  0  0  0  0  0  0
   -7.2130  -11.2950   -3.2630 C   0  0  0  0  0  0  0  0  0  0  0
   -7.8100  -12.3380   -3.9260 F   0  0  0  0  0  0  0  0  0  0  0
   -7.2550  -10.1840   -4.0670 F   0  0  0  0  0  0  0  0  0  0  0
    0.2030   -5.2800   -2.7130 H   0  0  0  0  0  0  0  0  0  0  0
   -1.0900   -7.1910   -1.9950 H   0  0  0  0  0  0  0  0  0  0  0
   -2.6250   -6.9790   -0.1290 H   0  0  0  0  0  0  0  0  0  0  0
   -2.8580   -4.9060    1.0050 H   0  0  0  0  0  0  0  0  0  0  0
   -0.8690   -1.9320    0.0970 H   0  0  0  0  0  0  0  0  0  0  0
   -2.8360    0.4930    3.4530 H   0  0  0  0  0  0  0  0  0  0  0
   -1.5440   -1.1870   -1.8480 H   0  0  0  0  0  0  0  0  0  0  0
   -0.7330    0.5400   -3.4370 H   0  0  0  0  0  0  0  0  0  0  0
    0.4110    0.2870   -2.1000 H   0  0  0  0  0  0  0  0  0  0  0
    0.7510   -0.4080   -3.7010 H   0  0  0  0  0  0  0  0  0  0  0
   -2.1300   -1.3290   -4.2700 H   0  0  0  0  0  0  0  0  0  0  0
   -0.7120   -2.3680   -4.5410 H   0  0  0  0  0  0  0  0  0  0  0
   -2.0470   -2.9330   -3.5130 H   0  0  0  0  0  0  0  0  0  0  0
   -5.6240   -2.9480    4.1830 H   0  0  0  0  0  0  0  0  0  0  0
   -6.6230   -5.7620   -0.0090 H   0  0  0  0  0  0  0  0  0  0  0
   -5.0610   -5.5800    4.5650 H   0  0  0  0  0  0  0  0  0  0  0
   -6.9590   -2.1050    2.1820 H   0  0  0  0  0  0  0  0  0  0  0
   -6.5110   -9.0380    1.7580 H   0  0  0  0  0  0  0  0  0  0  0
   -8.2030   -7.4050   -0.1810 H   0  0  0  0  0  0  0  0  0  0  0
   -8.7240   -8.0310    1.4000 H   0  0  0  0  0  0  0  0  0  0  0
   -8.3150  -10.3400    0.6360 H   0  0  0  0  0  0  0  0  0  0  0
   -9.4360   -9.4910   -0.4480 H   0  0  0  0  0  0  0  0  0  0  0
   -6.0060  -10.7020   -0.0530 H   0  0  0  0  0  0  0  0  0  0  0
   -5.4440  -10.0910   -1.6210 H   0  0  0  0  0  0  0  0  0  0  0
   -5.7010   -7.7840   -0.8960 H   0  0  0  0  0  0  0  0  0  0  0
   -4.6400   -8.6730    0.2190 H   0  0  0  0  0  0  0  0  0  0  0
   -7.4750   -0.3280    0.5910 H   0  0  0  0  0  0  0  0  0  0  0
   -5.7670   -0.8030    0.4480 H   0  0  0  0  0  0  0  0  0  0  0
   -6.9450   -1.3520   -0.7670 H   0  0  0  0  0  0  0  0  0  0  0
   -9.2100   -2.0990    1.1910 H   0  0  0  0  0  0  0  0  0  0  0
   -8.6430   -3.1140   -0.1590 H   0  0  0  0  0  0  0  0  0  0  0
   -8.6860   -3.7690    1.4950 H   0  0  0  0  0  0  0  0  0  0  0
   -5.3150   -7.8360    4.8920 H   0  0  0  0  0  0  0  0  0  0  0
   -6.6460   -8.5440    3.9650 H   0  0  0  0  0  0  0  0  0  0  0
   -4.9620   -8.7840    3.4380 H   0  0  0  0  0  0  0  0  0  0  0
   -7.8070  -11.8970   -1.2770 H   0  0  0  0  0  0  0  0  0  0  0
   -9.0140  -10.9490   -2.1590 H   0  0  0  0  0  0  0  0  0  0  0
   -6.1750  -11.5610   -3.0670 H   0  0  0  0  0  0  0  0  0  0  0
  1  2  2  0  0  0  0
  2  3  2  0  0  0  0
  2  4  1  0  0  0  0
  2 17  1  0  0  0  0
  4  5  2  0  0  0  0
  4  9  1  0  0  0  0
  5  6  1  0  0  0  0
  5 43  1  0  0  0  0
  6  7  2  0  0  0  0
  6 44  1  0  0  0  0
  7  8  1  0  0  0  0
  7 45  1  0  0  0  0
  8  9  2  0  0  0  0
  8 46  1  0  0  0  0
  9 10  1  0  0  0  0
 10 11  1  0  0  0  0
 10 47  1  0  0  0  0
 11 12  2  0  0  0  0
 11 16  1  0  0  0  0
 12 13  1  0  0  0  0
 13 14  2  0  0  0  0
 13 21  1  0  0  0  0
 14 15  1  0  0  0  0
 15 16  2  0  0  0  0
 15 48  1  0  0  0  0
 16 20  1  0  0  0  0
 17 18  1  0  0  0  0
 17 19  1  0  0  0  0
 17 49  1  0  0  0  0
 18 50  1  0  0  0  0
 18 51  1  0  0  0  0
 18 52  1  0  0  0  0
 19 53  1  0  0  0  0
 19 54  1  0  0  0  0
 19 55  1  0  0  0  0
 21 22  1  0  0  0  0
 21 56  1  0  0  0  0
 22 23  2  0  0  0  0
 22 27  1  0  0  0  0
 23 24  1  0  0  0  0
 23 28  1  0  0  0  0
 24 25  2  0  0  0  0
 24 57  1  0  0  0  0
 25 26  1  0  0  0  0
 25 30  1  0  0  0  0
 26 27  2  0  0  0  0
 26 38  1  0  0  0  0
 27 58  1  0  0  0  0
 28 29  1  0  0  0  0
 29 36  1  0  0  0  0
 29 37  1  0  0  0  0
 29 59  1  0  0  0  0
 30 31  1  0  0  0  0
 30 35  1  0  0  0  0
 30 60  1  0  0  0  0
 31 32  1  0  0  0  0
 31 61  1  0  0  0  0
 31 62  1  0  0  0  0
 32 33  1  0  0  0  0
 32 63  1  0  0  0  0
 32 64  1  0  0  0  0
 33 34  1  0  0  0  0
 33 39  1  0  0  0  0
 34 35  1  0  0  0  0
 34 65  1  0  0  0  0
 34 66  1  0  0  0  0
 35 67  1  0  0  0  0
 35 68  1  0  0  0  0
 36 69  1  0  0  0  0
 36 70  1  0  0  0  0
 36 71  1  0  0  0  0
 37 72  1  0  0  0  0
 37 73  1  0  0  0  0
 37 74  1  0  0  0  0
 38 75  1  0  0  0  0
 38 76  1  0  0  0  0
 38 77  1  0  0  0  0
 39 40  1  0  0  0  0
 39 78  1  0  0  0  0
 39 79  1  0  0  0  0
 40 41  1  0  0  0  0
 40 42  1  0  0  0  0
 40 80  1  0  0  0  0
M  END
> <From>
www.bindingDB.org

> <BindingDB Reactant_set_id>
51069513

> <Ligand InChI>
InChI=1S/C30H38ClF2N5O3S/c1-18(2)41-26-15-22(21-10-12-38(13-11-21)17-28(32)33)20(5)14-25(26)36-30-34-16-23(31)29(37-30)35-24-8-6-7-9-27(24)42(39,40)19(3)4/h6-9,14-16,18-19,21,28H,10-13,17H2,1-5H3,(H2,34,35,36,37)

> <Ligand InChI Key>
XYPDSQQXLIHTAH-UHFFFAOYSA-N

> <BindingDB MonomerID>
50436872

> <BindingDB Ligand Name>
CHEMBL2403839

> <Target Name Assigned by Curator or DataSource>
ALK tyrosine kinase receptor

> <Target Source Organism According to Curator or DataSource>
Homo sapiens

> <Ki (nM)>


> <IC50 (nM)>
 306

> <Kd (nM)>


> <EC50 (nM)>


> <kon (M-1-s-1)>


> <koff (s-1)>


> <pH>


> <Temp C>


> <Curation/DataSource>
ChEMBL

> <Article DOI>
10.1021/jm400402q

> <PMID>
23742252

> <PubChem AID>


> <Patent Number>


> <Authors>
Marsilje, TH; Pei, W; Chen, B; Lu, W; Uno, T; Jin, Y; Jiang, T; Kim, S; Li, N; Warmuth, M; Sarkisova, Y; Sun, F; Steffy, A; Pferdekamper, AC; Li, AG; Joseph, SB; Kim, Y; Liu, B; Tuntland, T; Cui, X; Gray, NS; Steensma, R; Wan, Y; Jiang, J; Chopiuk, G; Li, J; Gordon, WP; Richmond, W; Johnson, K; Chang, J; Groessl, T; He, YQ; Phimister, A; Aycinena, A; Lee, CC; Bursulaya, B; Karanewsky, DS; Seidel, HM; Harris, JL; Michellys, PY

> <Institution>
Genomics Institute of the Novartis Research Foundation 

> <Link to Ligand in BindingDB>
http://www.bindingdb.org/bind/chemsearch/marvin/MolStructure.jsp?monomerid=50436872

> <Link to Ligand-Target Pair in BindingDB>
http://www.bindingdb.org/jsp/dbsearch/PrimarySearch_ki.jsp?energyterm=kJ/mole&tag=pol&polymerid=5809&target=ALK+tyrosine+kinase+receptor&column=ki&startPg=0&Increment=50&submit=Search

> <Link to Ligand-Target Pair in BindingDB>
http://www.bindingdb.org/jsp/dbsearch/PrimarySearch_ki.jsp?energyterm=kJ/mole&tag=r21&monomerid=50436872&enzyme=ALK+tyrosine+kinase+receptor&column=ki&startPg=0&Increment=50&submit=Search

> <Ligand HET ID in PDB>


> <PDB ID(s) for Ligand-Target Complex>


> <PubChem CID>
71764219

> <PubChem SID>
175449189

> <ChEBI ID of Ligand>


> <ChEMBL ID of Ligand>
CHEMBL2403839

> <DrugBank ID of Ligand>


> <IUPHAR_GRAC ID of Ligand>


> <KEGG ID of Ligand>


> <ZINC ID of Ligand>
ZINC96272795

> <Number of Protein Chains in Target (>1 implies a multichain complex)>
1

> <BindingDB Target Chain Sequence>
MGAIGLLWLLPLLLSTAAVGSGMGTGQRAGSPAAGPPLQPREPLSYSRLQRKSLAVDFVVPSLFRVYARDLLLPPSSSELKAGRPEARGSLALDCAPLLRLLGPAPGVSWTAGSPAPAEARTLSRVLKGGSVRKLRRAKQLVLELGEEAILEGCVGPPGEAAVGLLQFNLSELFSWWIRQGEGRLRIRLMPEKKASEVGREGRLSAAIRASQPRLLFQIFGTGHSSLESPTNMPSPSPDYFTWNLTWIMKDSFPFLSHRSRYGLECSFDFPCELEYSPPLHDLRNQSWSWRRIPSEEASQMDLLDGPGAERSKEMPRGSFLLLNTSADSKHTILSPWMRSSSEHCTLAVSVHRHLQPSGRYIAQLLPHNEAAREILLMPTPGKHGWTVLQGRIGRPDNPFRVALEYISSGNRSLSAVDFFALKNCSEGTSPGSKMALQSSFTCWNGTVLQLGQACDFHQDCAQGEDESQMCRKLPVGFYCNFEDGFCGWTQGTLSPHTPQWQVRTLKDARFQDHQDHALLLSTTDVPASESATVTSATFPAPIKSSPCELRMSWLIRGVLRGNVSLVLVENKTGKEQGRMVWHVAAYEGLSLWQWMVLPLLDVSDRFWLQMVAWWGQGSRAIVAFDNISISLDCYLTISGEDKILQNTAPKSRNLFERNPNKELKPGENSPRQTPIFDPTVHWLFTTCGASGPHGPTQAQCNNAYQNSNLSVEVGSEGPLKGIQIWKVPATDTYSISGYGAAGGKGGKNTMMRSHGVSVLGIFNLEKDDMLYILVGQQGEDACPSTNQLIQKVCIGENNVIEEEIRVNRSVHEWAGGGGGGGGATYVFKMKDGVPVPLIIAAGGGGRAYGAKTDTFHPERLENNSSVLGLNGNSGAAGGGGGWNDNTSLLWAGKSLQEGATGGHSCPQAMKKWGWETRGGFGGGGGGCSSGGGGGGYIGGNAASNNDPEMDGEDGVSFISPLGILYTPALKVMEGHGEVNIKHYLNCSHCEVDECHMDPESHKVICFCDHGTVLAEDGVSCIVSPTPEPHLPLSLILSVVTSALVAALVLAFSGIMIVYRRKHQELQAMQMELQSPEYKLSKLRTSTIMTDYNPNYCFAGKTSSISDLKEVPRKNITLIRGLGHGAFGEVYEGQVSGMPNDPSPLQVAVKTLPEVCSEQDELDFLMEALIISKFNHQNIVRCIGVSLQSLPRFILLELMAGGDLKSFLRETRPRPSQPSSLAMLDLLHVARDIACGCQYLEENHFIHRDIAARNCLLTCPGPGRVAKIGDFGMARDIYRASYYRKGGCAMLPVKWMPPEAFMEGIFTSKTDTWSFGVLLWEIFSLGYMPYPSKSNQEVLEFVTSGGRMDPPKNCPGPVYRIMTQCWQHQPEDRPNFAIILERIEYCTQDPDVINTALPIEYGPLVEEEEKVPVRPKDPEGVPPLLVSQQAKREEERSPAAPPPLPTTSSGKAAKKPTAAEISVRVPRGPAVEGGHVNMAFSQSNPPSELHKVHGSRNKPTSLWNPTYGSWFTEKPTKKNNPIAKKEPHDRGNLGLEGSCTVPPNVATGRLPGASLLLEPSSLTANMKEVPLFRLRHFPCGNVNYGYQQQGLPLEAATAPGAGHYEDTILKSKNSMNQPGP

> <PDB ID(s) of Target Chain>
2XB7,2XBA,3AOX,5FTO,5FTQ,6E0R,6EBW,6EDL,6MX8

> <UniProt (SwissProt) Recommended Name of Target Chain>
ALK tyrosine kinase receptor

> <UniProt (SwissProt) Entry Name of Target Chain>
ALK_HUMAN

> <UniProt (SwissProt) Primary ID of Target Chain>
Q9UM73

> <UniProt (SwissProt) Secondary ID(s) of Target Chain>
Q4ZFX9,Q53QQ6,Q53RZ4,Q59FI3,Q9Y4K6

> <UniProt (SwissProt) Alternative ID(s) of Target Chain>


> <UniProt (TrEMBL) Submitted Name of Target Chain>


> <UniProt (TrEMBL) Entry Name of Target Chain>


> <UniProt (TrEMBL) Primary ID of Target Chain>


> <UniProt (TrEMBL) Secondary ID(s) of Target Chain>


> <UniProt (TrEMBL) Alternative ID(s) of Target Chain>


$$$$
BindingDB_50436873_mol_1

Vconf v2.0 Academic SN VC001-00000579
 75 79  0  0  0  0  0  0  0  0999 V2000
   -0.1800  -17.8500   -1.2740 O   0  0  0  0  0  0  0  0  0  0  0
    1.0980  -18.3390   -2.0840 S   0  0  0  0  0  0  0  0  0  0  0
    0.9240  -19.3520   -3.2980 O   0  0  0  0  0  0  0  0  0  0  0
    2.3380  -18.9510   -1.0180 C   0  0  0  0  0  0  0  0  0  0  0
    3.1560  -19.9890   -1.5060 C   0  0  0  0  0  0  0  0  0  0  0
    4.1890  -20.5190   -0.7210 C   0  0  0  0  0  0  0  0  0  0  0
    4.4120  -20.0100    0.5650 C   0  0  0  0  0  0  0  0  0  0  0
    3.6010  -18.9770    1.0590 C   0  0  0  0  0  0  0  0  0  0  0
    2.5520  -18.4270    0.2820 C   0  0  0  0  0  0  0  0  0  0  0
    1.7110  -17.4280    0.6980 N   0  0  0  0  0  0  0  0  0  0  0
    1.7080  -16.6820    1.8420 C   0  0  0  0  0  0  0  0  0  0  0
    2.6800  -16.7980    2.7780 N   0  0  0  0  0  0  0  0  0  0  0
    2.7190  -16.0740    3.9210 C   0  0  0  0  0  0  0  0  0  0  0
    1.7290  -15.1830    4.1500 N   0  0  0  0  0  0  0  0  0  0  0
    0.7240  -15.0000    3.2630 C   0  0  0  0  0  0  0  0  0  0  0
    0.6820  -15.7390    2.0680 C   0  0  0  0  0  0  0  0  0  0  0
    1.6990  -16.8640   -2.9360 C   0  0  0  0  0  0  0  0  0  0  0
   -0.5830  -15.4640    0.9750 Cl  0  0  0  0  0  0  0  0  0  0  0
    3.7160  -16.2050    4.8250 N   0  0  0  0  0  0  0  0  0  0  0
    4.7850  -17.0110    4.6350 C   0  0  0  0  0  0  0  0  0  0  0
    4.7170  -18.4170    4.7640 C   0  0  0  0  0  0  0  0  0  0  0
    5.8500  -19.1870    4.4540 C   0  0  0  0  0  0  0  0  0  0  0
    7.0600  -18.5920    4.0410 C   0  0  0  0  0  0  0  0  0  0  0
    7.1330  -17.1800    3.9510 C   0  0  0  0  0  0  0  0  0  0  0
    5.9940  -16.4060    4.2500 C   0  0  0  0  0  0  0  0  0  0  0
    3.6030  -19.1100    5.1390 O   0  0  0  0  0  0  0  0  0  0  0
    2.7620  -18.7240    6.2340 C   0  0  0  0  0  0  0  0  0  0  0
    8.2150  -19.4660    3.7030 C   0  0  0  0  0  0  0  0  0  0  0
    8.6810  -20.3020    4.9120 C   0  0  0  0  0  0  0  0  0  0  0
    9.8790  -21.1730    4.5040 C   0  0  0  0  0  0  0  0  0  0  0
    9.5120  -22.0580    3.3880 N   0  0  0  0  0  0  0  0  0  0  0
    9.1200  -21.2730    2.2070 C   0  0  0  0  0  0  0  0  0  0  0
    7.8920  -20.4090    2.5260 C   0  0  0  0  0  0  0  0  0  0  0
    2.1770  -15.6700   -2.1030 C   0  0  0  0  0  0  0  0  0  0  0
    3.6240  -16.0150   -2.4640 C   0  0  0  0  0  0  0  0  0  0  0
    3.1070  -16.9840   -3.5310 C   0  0  0  0  0  0  0  0  0  0  0
    8.3710  -16.4950    3.5350 C   0  0  0  0  0  0  0  0  0  0  0
    1.6870  -19.8060    6.3870 C   0  0  0  0  0  0  0  0  0  0  0
    3.5510  -18.6050    7.5480 C   0  0  0  0  0  0  0  0  0  0  0
    3.0010  -20.3610   -2.4440 H   0  0  0  0  0  0  0  0  0  0  0
    4.7750  -21.2710   -1.0840 H   0  0  0  0  0  0  0  0  0  0  0
    5.1590  -20.3940    1.1440 H   0  0  0  0  0  0  0  0  0  0  0
    3.7890  -18.6500    2.0020 H   0  0  0  0  0  0  0  0  0  0  0
    1.0010  -17.2060    0.0790 H   0  0  0  0  0  0  0  0  0  0  0
   -0.0020  -14.3130    3.4730 H   0  0  0  0  0  0  0  0  0  0  0
    0.9260  -16.6140   -3.6630 H   0  0  0  0  0  0  0  0  0  0  0
    3.6990  -15.6390    5.6120 H   0  0  0  0  0  0  0  0  0  0  0
    5.7870  -20.2030    4.5290 H   0  0  0  0  0  0  0  0  0  0  0
    6.0380  -15.3900    4.1620 H   0  0  0  0  0  0  0  0  0  0  0
    2.2590  -17.7810    6.0270 H   0  0  0  0  0  0  0  0  0  0  0
    9.0680  -18.8630    3.3940 H   0  0  0  0  0  0  0  0  0  0  0
    7.8780  -20.9540    5.2610 H   0  0  0  0  0  0  0  0  0  0  0
    8.9830  -19.6400    5.7250 H   0  0  0  0  0  0  0  0  0  0  0
   10.7150  -20.5340    4.2130 H   0  0  0  0  0  0  0  0  0  0  0
   10.1820  -21.7830    5.3550 H   0  0  0  0  0  0  0  0  0  0  0
   10.3520  -22.5810    3.1330 H   0  0  0  0  0  0  0  0  0  0  0
    8.8730  -21.9560    1.3940 H   0  0  0  0  0  0  0  0  0  0  0
    9.9460  -20.6340    1.8930 H   0  0  0  0  0  0  0  0  0  0  0
    7.0590  -21.0670    2.7790 H   0  0  0  0  0  0  0  0  0  0  0
    7.6290  -19.8230    1.6440 H   0  0  0  0  0  0  0  0  0  0  0
    1.8500  -14.7090   -2.5030 H   0  0  0  0  0  0  0  0  0  0  0
    1.9290  -15.6670   -1.0440 H   0  0  0  0  0  0  0  0  0  0  0
    4.2350  -15.1880   -2.8260 H   0  0  0  0  0  0  0  0  0  0  0
    4.1720  -16.5000   -1.6550 H   0  0  0  0  0  0  0  0  0  0  0
    3.5510  -17.9790   -3.5320 H   0  0  0  0  0  0  0  0  0  0  0
    3.1810  -16.5970   -4.5480 H   0  0  0  0  0  0  0  0  0  0  0
    8.2440  -15.4100    3.5240 H   0  0  0  0  0  0  0  0  0  0  0
    9.1750  -16.7420    4.2300 H   0  0  0  0  0  0  0  0  0  0  0
    8.6480  -16.8190    2.5310 H   0  0  0  0  0  0  0  0  0  0  0
    1.0090  -19.5400    7.1980 H   0  0  0  0  0  0  0  0  0  0  0
    1.1210  -19.8910    5.4590 H   0  0  0  0  0  0  0  0  0  0  0
    2.1580  -20.7650    6.6100 H   0  0  0  0  0  0  0  0  0  0  0
    2.8650  -18.3980    8.3700 H   0  0  0  0  0  0  0  0  0  0  0
    4.0830  -19.5370    7.7430 H   0  0  0  0  0  0  0  0  0  0  0
    4.2690  -17.7870    7.4760 H   0  0  0  0  0  0  0  0  0  0  0
  1  2  2  0  0  0  0
  2  3  2  0  0  0  0
  2  4  1  0  0  0  0
  2 17  1  0  0  0  0
  4  5  2  0  0  0  0
  4  9  1  0  0  0  0
  5  6  1  0  0  0  0
  5 40  1  0  0  0  0
  6  7  2  0  0  0  0
  6 41  1  0  0  0  0
  7  8  1  0  0  0  0
  7 42  1  0  0  0  0
  8  9  2  0  0  0  0
  8 43  1  0  0  0  0
  9 10  1  0  0  0  0
 10 11  1  0  0  0  0
 10 44  1  0  0  0  0
 11 12  2  0  0  0  0
 11 16  1  0  0  0  0
 12 13  1  0  0  0  0
 13 14  2  0  0  0  0
 13 19  1  0  0  0  0
 14 15  1  0  0  0  0
 15 16  2  0  0  0  0
 15 45  1  0  0  0  0
 16 18  1  0  0  0  0
 17 34  1  0  0  0  0
 17 36  1  0  0  0  0
 17 46  1  0  0  0  0
 19 20  1  0  0  0  0
 19 47  1  0  0  0  0
 20 21  2  0  0  0  0
 20 25  1  0  0  0  0
 21 22  1  0  0  0  0
 21 26  1  0  0  0  0
 22 23  2  0  0  0  0
 22 48  1  0  0  0  0
 23 24  1  0  0  0  0
 23 28  1  0  0  0  0
 24 25  2  0  0  0  0
 24 37  1  0  0  0  0
 25 49  1  0  0  0  0
 26 27  1  0  0  0  0
 27 38  1  0  0  0  0
 27 39  1  0  0  0  0
 27 50  1  0  0  0  0
 28 29  1  0  0  0  0
 28 33  1  0  0  0  0
 28 51  1  0  0  0  0
 29 30  1  0  0  0  0
 29 52  1  0  0  0  0
 29 53  1  0  0  0  0
 30 31  1  0  0  0  0
 30 54  1  0  0  0  0
 30 55  1  0  0  0  0
 31 32  1  0  0  0  0
 31 56  1  0  0  0  0
 32 33  1  0  0  0  0
 32 57  1  0  0  0  0
 32 58  1  0  0  0  0
 33 59  1  0  0  0  0
 33 60  1  0  0  0  0
 34 35  1  0  0  0  0
 34 61  1  0  0  0  0
 34 62  1  0  0  0  0
 35 36  1  0  0  0  0
 35 63  1  0  0  0  0
 35 64  1  0  0  0  0
 36 65  1  0  0  0  0
 36 66  1  0  0  0  0
 37 67  1  0  0  0  0
 37 68  1  0  0  0  0
 37 69  1  0  0  0  0
 38 70  1  0  0  0  0
 38 71  1  0  0  0  0
 38 72  1  0  0  0  0
 39 73  1  0  0  0  0
 39 74  1  0  0  0  0
 39 75  1  0  0  0  0
M  END
> <From>
www.bindingDB.org

> <BindingDB Reactant_set_id>
51069528

> <Ligand InChI>
InChI=1S/C29H36ClN5O3S/c1-18(2)38-26-16-22(20-11-13-31-14-12-20)19(3)15-25(26)34-29-32-17-23(30)28(35-29)33-24-9-4-5-10-27(24)39(36,37)21-7-6-8-21/h4-5,9-10,15-18,20-21,31H,6-8,11-14H2,1-3H3,(H2,32,33,34,35)

> <Ligand InChI Key>
WTLGABJSLMBEHB-UHFFFAOYSA-N

> <BindingDB MonomerID>
50436873

> <BindingDB Ligand Name>
CHEMBL2403847

> <Target Name Assigned by Curator or DataSource>
ALK tyrosine kinase receptor

> <Target Source Organism According to Curator or DataSource>
Homo sapiens

> <Ki (nM)>


> <IC50 (nM)>
 38

> <Kd (nM)>


> <EC50 (nM)>


> <kon (M-1-s-1)>


> <koff (s-1)>


> <pH>


> <Temp C>


> <Curation/DataSource>
ChEMBL

> <Article DOI>
10.1021/jm400402q

> <PMID>
23742252

> <PubChem AID>


> <Patent Number>


> <Authors>
Marsilje, TH; Pei, W; Chen, B; Lu, W; Uno, T; Jin, Y; Jiang, T; Kim, S; Li, N; Warmuth, M; Sarkisova, Y; Sun, F; Steffy, A; Pferdekamper, AC; Li, AG; Joseph, SB; Kim, Y; Liu, B; Tuntland, T; Cui, X; Gray, NS; Steensma, R; Wan, Y; Jiang, J; Chopiuk, G; Li, J; Gordon, WP; Richmond, W; Johnson, K; Chang, J; Groessl, T; He, YQ; Phimister, A; Aycinena, A; Lee, CC; Bursulaya, B; Karanewsky, DS; Seidel, HM; Harris, JL; Michellys, PY

> <Institution>
Genomics Institute of the Novartis Research Foundation 

> <Link to Ligand in BindingDB>
http://www.bindingdb.org/bind/chemsearch/marvin/MolStructure.jsp?monomerid=50436873

> <Link to Ligand-Target Pair in BindingDB>
http://www.bindingdb.org/jsp/dbsearch/PrimarySearch_ki.jsp?energyterm=kJ/mole&tag=pol&polymerid=5809&target=ALK+tyrosine+kinase+receptor&column=ki&startPg=0&Increment=50&submit=Search

> <Link to Ligand-Target Pair in BindingDB>
http://www.bindingdb.org/jsp/dbsearch/PrimarySearch_ki.jsp?energyterm=kJ/mole&tag=r21&monomerid=50436873&enzyme=ALK+tyrosine+kinase+receptor&column=ki&startPg=0&Increment=50&submit=Search

> <Ligand HET ID in PDB>


> <PDB ID(s) for Ligand-Target Complex>


> <PubChem CID>
71764055

> <PubChem SID>
175449190

> <ChEBI ID of Ligand>


> <ChEMBL ID of Ligand>
CHEMBL2403847

> <DrugBank ID of Ligand>


> <IUPHAR_GRAC ID of Ligand>


> <KEGG ID of Ligand>


> <ZINC ID of Ligand>
ZINC96272796

> <Number of Protein Chains in Target (>1 implies a multichain complex)>
1

> <BindingDB Target Chain Sequence>
MGAIGLLWLLPLLLSTAAVGSGMGTGQRAGSPAAGPPLQPREPLSYSRLQRKSLAVDFVVPSLFRVYARDLLLPPSSSELKAGRPEARGSLALDCAPLLRLLGPAPGVSWTAGSPAPAEARTLSRVLKGGSVRKLRRAKQLVLELGEEAILEGCVGPPGEAAVGLLQFNLSELFSWWIRQGEGRLRIRLMPEKKASEVGREGRLSAAIRASQPRLLFQIFGTGHSSLESPTNMPSPSPDYFTWNLTWIMKDSFPFLSHRSRYGLECSFDFPCELEYSPPLHDLRNQSWSWRRIPSEEASQMDLLDGPGAERSKEMPRGSFLLLNTSADSKHTILSPWMRSSSEHCTLAVSVHRHLQPSGRYIAQLLPHNEAAREILLMPTPGKHGWTVLQGRIGRPDNPFRVALEYISSGNRSLSAVDFFALKNCSEGTSPGSKMALQSSFTCWNGTVLQLGQACDFHQDCAQGEDESQMCRKLPVGFYCNFEDGFCGWTQGTLSPHTPQWQVRTLKDARFQDHQDHALLLSTTDVPASESATVTSATFPAPIKSSPCELRMSWLIRGVLRGNVSLVLVENKTGKEQGRMVWHVAAYEGLSLWQWMVLPLLDVSDRFWLQMVAWWGQGSRAIVAFDNISISLDCYLTISGEDKILQNTAPKSRNLFERNPNKELKPGENSPRQTPIFDPTVHWLFTTCGASGPHGPTQAQCNNAYQNSNLSVEVGSEGPLKGIQIWKVPATDTYSISGYGAAGGKGGKNTMMRSHGVSVLGIFNLEKDDMLYILVGQQGEDACPSTNQLIQKVCIGENNVIEEEIRVNRSVHEWAGGGGGGGGATYVFKMKDGVPVPLIIAAGGGGRAYGAKTDTFHPERLENNSSVLGLNGNSGAAGGGGGWNDNTSLLWAGKSLQEGATGGHSCPQAMKKWGWETRGGFGGGGGGCSSGGGGGGYIGGNAASNNDPEMDGEDGVSFISPLGILYTPALKVMEGHGEVNIKHYLNCSHCEVDECHMDPESHKVICFCDHGTVLAEDGVSCIVSPTPEPHLPLSLILSVVTSALVAALVLAFSGIMIVYRRKHQELQAMQMELQSPEYKLSKLRTSTIMTDYNPNYCFAGKTSSISDLKEVPRKNITLIRGLGHGAFGEVYEGQVSGMPNDPSPLQVAVKTLPEVCSEQDELDFLMEALIISKFNHQNIVRCIGVSLQSLPRFILLELMAGGDLKSFLRETRPRPSQPSSLAMLDLLHVARDIACGCQYLEENHFIHRDIAARNCLLTCPGPGRVAKIGDFGMARDIYRASYYRKGGCAMLPVKWMPPEAFMEGIFTSKTDTWSFGVLLWEIFSLGYMPYPSKSNQEVLEFVTSGGRMDPPKNCPGPVYRIMTQCWQHQPEDRPNFAIILERIEYCTQDPDVINTALPIEYGPLVEEEEKVPVRPKDPEGVPPLLVSQQAKREEERSPAAPPPLPTTSSGKAAKKPTAAEISVRVPRGPAVEGGHVNMAFSQSNPPSELHKVHGSRNKPTSLWNPTYGSWFTEKPTKKNNPIAKKEPHDRGNLGLEGSCTVPPNVATGRLPGASLLLEPSSLTANMKEVPLFRLRHFPCGNVNYGYQQQGLPLEAATAPGAGHYEDTILKSKNSMNQPGP

> <PDB ID(s) of Target Chain>
2XB7,2XBA,3AOX,5FTO,5FTQ,6E0R,6EBW,6EDL,6MX8

> <UniProt (SwissProt) Recommended Name of Target Chain>
ALK tyrosine kinase receptor

> <UniProt (SwissProt) Entry Name of Target Chain>
ALK_HUMAN

> <UniProt (SwissProt) Primary ID of Target Chain>
Q9UM73

> <UniProt (SwissProt) Secondary ID(s) of Target Chain>
Q4ZFX9,Q53QQ6,Q53RZ4,Q59FI3,Q9Y4K6

> <UniProt (SwissProt) Alternative ID(s) of Target Chain>


> <UniProt (TrEMBL) Submitted Name of Target Chain>


> <UniProt (TrEMBL) Entry Name of Target Chain>


> <UniProt (TrEMBL) Primary ID of Target Chain>


> <UniProt (TrEMBL) Secondary ID(s) of Target Chain>


> <UniProt (TrEMBL) Alternative ID(s) of Target Chain>


$$$$
