6_7-Dimethoxyquinoline

Vconf v2.0 Academic SN VC001-00000579
 38 40  0  0  0  0  0  0  0  0999 V2000
   -1.4490    2.8560    1.2350 C   0  0  0  0  0  0  0  0  0  0  0
   -2.6230    2.5320    0.5290 C   0  0  0  0  0  0  0  0  0  0  0
   -2.9660    1.1800    0.3210 C   0  0  0  0  0  0  0  0  0  0  0
   -2.1110    0.1680    0.7770 C   0  0  0  0  0  0  0  0  0  0  0
   -0.5820    1.8480    1.7210 C   0  0  0  0  0  0  0  0  0  0  0
   -0.9310    0.4960    1.4630 C   0  0  0  0  0  0  0  0  0  0  0
    0.6010    2.1240    2.4610 C   0  0  0  0  0  0  0  0  0  0  0
    1.0120   -0.2870    2.5690 C   0  0  0  0  0  0  0  0  0  0  0
    1.4150    1.0270    2.8720 C   0  0  0  0  0  0  0  0  0  0  0
   -0.1330   -0.5080    1.8900 N   0  0  0  0  0  0  0  0  0  0  0
    2.5430    1.1400    3.5100 C   0  0  0  0  0  0  0  0  0  0  0
    3.5400    1.2270    4.0740 N   0  0  0  0  0  0  0  0  0  0  0
    0.8560    3.4490    2.7420 N   0  0  0  0  0  0  0  0  0  0  0
    1.8250    3.9480    3.5500 C   0  0  0  0  0  0  0  0  0  0  0
    2.7190    4.4910    5.7560 C   0  0  0  0  0  0  0  0  0  0  0
    1.6580    4.0300    4.9510 C   0  0  0  0  0  0  0  0  0  0  0
    3.0300    4.3810    2.9660 C   0  0  0  0  0  0  0  0  0  0  0
    4.0850    4.8430    3.7710 C   0  0  0  0  0  0  0  0  0  0  0
    3.9360    4.8870    5.1700 C   0  0  0  0  0  0  0  0  0  0  0
    0.2070    3.5610    5.6950 Cl  0  0  0  0  0  0  0  0  0  0  0
    5.2120    5.4160    6.1460 Cl  0  0  0  0  0  0  0  0  0  0  0
   -4.1110    0.8250   -0.3200 O   0  0  0  0  0  0  0  0  0  0  0
   -5.3370    0.9250    0.4080 C   0  0  0  0  0  0  0  0  0  0  0
   -3.4170    3.5390    0.0770 O   0  0  0  0  0  0  0  0  0  0  0
   -3.5180    3.7460   -1.3350 C   0  0  0  0  0  0  0  0  0  0  0
   -1.2330    3.8420    1.3850 H   0  0  0  0  0  0  0  0  0  0  0
   -2.3550   -0.8110    0.6210 H   0  0  0  0  0  0  0  0  0  0  0
    1.5760   -1.0930    2.8520 H   0  0  0  0  0  0  0  0  0  0  0
    0.2490    4.1030    2.3640 H   0  0  0  0  0  0  0  0  0  0  0
    2.6110    4.5320    6.7720 H   0  0  0  0  0  0  0  0  0  0  0
    3.1520    4.3330    1.9540 H   0  0  0  0  0  0  0  0  0  0  0
    4.9620    5.1250    3.3320 H   0  0  0  0  0  0  0  0  0  0  0
   -6.1540    0.5780   -0.2230 H   0  0  0  0  0  0  0  0  0  0  0
   -5.2970    0.3010    1.3030 H   0  0  0  0  0  0  0  0  0  0  0
   -5.5280    1.9600    0.6950 H   0  0  0  0  0  0  0  0  0  0  0
   -4.2020    4.5730   -1.5250 H   0  0  0  0  0  0  0  0  0  0  0
   -2.5380    3.9980   -1.7440 H   0  0  0  0  0  0  0  0  0  0  0
   -3.9000    2.8540   -1.8350 H   0  0  0  0  0  0  0  0  0  0  0
  1  2  1  0  0  0  0
  1  5  2  0  0  0  0
  1 26  1  0  0  0  0
  2  3  2  0  0  0  0
  2 24  1  0  0  0  0
  3  4  1  0  0  0  0
  3 22  1  0  0  0  0
  4  6  2  0  0  0  0
  4 27  1  0  0  0  0
  5  6  1  0  0  0  0
  5  7  1  0  0  0  0
  6 10  1  0  0  0  0
  7  9  2  0  0  0  0
  7 13  1  0  0  0  0
  8  9  1  0  0  0  0
  8 10  2  0  0  0  0
  8 28  1  0  0  0  0
  9 11  1  0  0  0  0
 11 12  3  0  0  0  0
 13 14  1  0  0  0  0
 13 29  1  0  0  0  0
 14 16  2  0  0  0  0
 14 17  1  0  0  0  0
 15 16  1  0  0  0  0
 15 19  2  0  0  0  0
 15 30  1  0  0  0  0
 16 20  1  0  0  0  0
 17 18  2  0  0  0  0
 17 31  1  0  0  0  0
 18 19  1  0  0  0  0
 18 32  1  0  0  0  0
 19 21  1  0  0  0  0
 22 23  1  0  0  0  0
 23 33  1  0  0  0  0
 23 34  1  0  0  0  0
 23 35  1  0  0  0  0
 24 25  1  0  0  0  0
 25 36  1  0  0  0  0
 25 37  1  0  0  0  0
 25 38  1  0  0  0  0
M  END
> <From>
www.bindingDB.org

> <BindingDB Reactant_set_id>
6679

> <Ligand InChI>
InChI=1S/C18H13Cl2N3O2/c1-24-16-6-12-15(7-17(16)25-2)22-9-10(8-21)18(12)23-14-4-3-11(19)5-13(14)20/h3-7,9H,1-2H3,(H,22,23)

> <Ligand InChI Key>
IUZCVUGIDCZCEQ-UHFFFAOYSA-N

> <BindingDB MonomerID>
4492

> <BindingDB Ligand Name>
4-[(2,4-Dichlorophenyl)amino]-6,7-dimethoxy-3-quinolinecarbonitrile::4-[(2,4-dichlorophenyl)amino]-6,7-dimethoxyquinoline-3-carbonitrile::6,7-Dimethoxyquinoline deriv. 2a::CHEMBL101917

> <Target Name Assigned by Curator or DataSource>
Proto-oncogene tyrosine-protein kinase Src

> <Target Source Organism According to Curator or DataSource>


> <Ki (nM)>


> <IC50 (nM)>
 30

> <Kd (nM)>


> <EC50 (nM)>


> <kon (M-1-s-1)>


> <koff (s-1)>


> <pH>
7.5

> <Temp C>
30.00

> <Curation/DataSource>
Curated from the literature by BindingDB

> <Article DOI>
10.1021/jm000420z

> <PMID>
11262092

> <PubChem AID>


> <Patent Number>


> <Authors>
Boschelli, DH; Wang, YD; Ye, F; Wu, B; Zhang, N; Dutia, M; Powell, DW; Wissner, A; Arndt, K; Weber, JM; Boschelli, F

> <Institution>
Wyeth-Ayerst Research

> <Link to Ligand in BindingDB>
http://www.bindingdb.org/bind/chemsearch/marvin/MolStructure.jsp?monomerid=4492

> <Link to Ligand-Target Pair in BindingDB>
http://www.bindingdb.org/jsp/dbsearch/PrimarySearch_ki.jsp?energyterm=kJ/mole&tag=pol&polymerid=13&target=Proto-oncogene+tyrosine-protein+kinase+Src&column=ki&startPg=0&Increment=50&submit=Search

> <Link to Ligand-Target Pair in BindingDB>
http://www.bindingdb.org/jsp/dbsearch/PrimarySearch_ki.jsp?energyterm=kJ/mole&tag=r21&monomerid=4492&enzyme=Proto-oncogene+tyrosine-protein+kinase+Src&column=ki&startPg=0&Increment=50&submit=Search

> <Ligand HET ID in PDB>


> <PDB ID(s) for Ligand-Target Complex>


> <PubChem CID>
5328887

> <PubChem SID>
8034161

> <ChEBI ID of Ligand>


> <ChEMBL ID of Ligand>
CHEMBL101917

> <DrugBank ID of Ligand>


> <IUPHAR_GRAC ID of Ligand>


> <KEGG ID of Ligand>


> <ZINC ID of Ligand>
ZINC13470095

> <Number of Protein Chains in Target (bigger than 1 a multichain complex)>
1

> <BindingDB Target Chain Sequence>
MGSNKSKPKDASQRRRSLEPAENVHGAGGGAFPASQTPSKPASADGHRGPSAAFAPAAAEPKLFGGFNSSDTVTSPQRAGPLAGGVTTFVALYDYESRTETDLSFKKGERLQIVNNTEGDWWLAHSLSTGQTGYIPSNYVAPSDSIQAEEWYFGKITRRESERLLLNAENPRGTFLVRESETTKGAYCLSVSDFDNAKGLNVKHYKIRKLDSGGFYITSRTQFNSLQQLVAYYSKHADGLCHRLTTVCPTSKPQTQGLAKDAWEIPRESLRLEVKLGQGCFGEVWMGTWNGTTRVAIKTLKPGTMSPEAFLQEAQVMKKLRHEKLVQLYAVVSEEPIYIVTEYMSKGSLLDFLKGETGKYLRLPQLVDMAAQIASGMAYVERMNYVHRDLRAANILVGENLVCKVADFGLARLIEDNEYTARQGAKFPIKWTAPEAALYGRFTIKSDVWSFGILLTELTTKGRVPYPGMVNREVLDQVERGYRMPCPPECPESLHDLMCQCWRKEPEERPTFEYLQAFLEDYFTSTEPQYQPGENL

> <PDB ID(s) of Target Chain>
1FMK,1HCS,1HCT,1O41,1O42,1O43,1O44,1O45,1O46,1O47,1O48,1O49,1O4A,1O4B,1O4C,1O4D,1O4E,1O4F,1O4G,1O4H,1O4I,1O4J,1O4K,1O4L,1O4M,1O4N,1O4O,1O4P,1O4Q,1O4R,1SHA,1SHB,1SHD,1SPR,1SPS,1Y57,1YI6,2BDF,2BDJ,2H8H,2PTK,2SRC,4MXO,4MXX,4OML,4OMO,5OB0,5OB1,6ATE,6E6E

> <UniProt (SwissProt) Recommended Name of Target Chain>
Proto-oncogene tyrosine-protein kinase Src

> <UniProt (SwissProt) Entry Name of Target Chain>
SRC_HUMAN

> <UniProt (SwissProt) Primary ID of Target Chain>
P12931

> <UniProt (SwissProt) Secondary ID(s) of Target Chain>
E1P5V4,Q76P87,Q86VB9,Q9H5A8

> <UniProt (SwissProt) Alternative ID(s) of Target Chain>


> <UniProt (TrEMBL) Submitted Name of Target Chain>


> <UniProt (TrEMBL) Entry Name of Target Chain>


> <UniProt (TrEMBL) Primary ID of Target Chain>


> <UniProt (TrEMBL) Secondary ID(s) of Target Chain>


> <UniProt (TrEMBL) Alternative ID(s) of Target Chain>


$$$$
6_7-dialkoxyquinoline-3-carbonitrile

Vconf v2.0 Academic SN VC001-00000579
 38 40  0  0  0  0  0  0  0  0999 V2000
    0.2560    2.2010    0.2910 C   0  0  0  0  0  0  0  0  0  0  0
    1.3480    0.0410   -0.0540 C   0  0  0  0  0  0  0  0  0  0  0
   -0.7730    0.0990    1.0080 C   0  0  0  0  0  0  0  0  0  0  0
   -0.8220    1.5160    0.9190 C   0  0  0  0  0  0  0  0  0  0  0
   -1.9750    2.1670    1.4190 C   0  0  0  0  0  0  0  0  0  0  0
   -3.0380    1.4380    1.9800 C   0  0  0  0  0  0  0  0  0  0  0
   -2.9530    0.0370    2.0850 C   0  0  0  0  0  0  0  0  0  0  0
   -1.8240   -0.6310    1.5860 C   0  0  0  0  0  0  0  0  0  0  0
    0.2930   -0.5730    0.5240 N   0  0  0  0  0  0  0  0  0  0  0
    1.3690    1.4410   -0.1820 C   0  0  0  0  0  0  0  0  0  0  0
   -3.9470   -0.6910    2.6580 O   0  0  0  0  0  0  0  0  0  0  0
   -4.1390    2.1040    2.4160 O   0  0  0  0  0  0  0  0  0  0  0
    2.4390    1.9550   -0.7260 C   0  0  0  0  0  0  0  0  0  0  0
    3.3840    2.3980   -1.2050 N   0  0  0  0  0  0  0  0  0  0  0
    0.1160    3.5630    0.1340 N   0  0  0  0  0  0  0  0  0  0  0
    0.7860    4.3430   -0.7520 C   0  0  0  0  0  0  0  0  0  0  0
    1.2840    4.9310   -3.0680 C   0  0  0  0  0  0  0  0  0  0  0
    0.5340    4.1990   -2.1350 C   0  0  0  0  0  0  0  0  0  0  0
    1.7400    5.2830   -0.3130 C   0  0  0  0  0  0  0  0  0  0  0
    2.4870    6.0170   -1.2500 C   0  0  0  0  0  0  0  0  0  0  0
   -5.2660    2.1730    1.5380 C   0  0  0  0  0  0  0  0  0  0  0
   -4.0250   -0.6950    4.0850 C   0  0  0  0  0  0  0  0  0  0  0
    2.2730    5.8300   -2.6300 C   0  0  0  0  0  0  0  0  0  0  0
    3.1990    6.6750   -3.7640 Cl  0  0  0  0  0  0  0  0  0  0  0
   -0.3850    3.3820   -2.5740 F   0  0  0  0  0  0  0  0  0  0  0
    2.1190   -0.5380   -0.3990 H   0  0  0  0  0  0  0  0  0  0  0
   -2.0630    3.1810    1.3750 H   0  0  0  0  0  0  0  0  0  0  0
   -1.7710   -1.6480    1.6440 H   0  0  0  0  0  0  0  0  0  0  0
   -0.6290    3.9860    0.5840 H   0  0  0  0  0  0  0  0  0  0  0
    1.1030    4.8010   -4.0640 H   0  0  0  0  0  0  0  0  0  0  0
    1.9100    5.4250    0.6840 H   0  0  0  0  0  0  0  0  0  0  0
    3.1870    6.6840   -0.9210 H   0  0  0  0  0  0  0  0  0  0  0
   -6.0750    2.7010    2.0430 H   0  0  0  0  0  0  0  0  0  0  0
   -5.0080    2.7150    0.6260 H   0  0  0  0  0  0  0  0  0  0  0
   -5.6080    1.1690    1.2780 H   0  0  0  0  0  0  0  0  0  0  0
   -4.8290   -1.3640    4.3930 H   0  0  0  0  0  0  0  0  0  0  0
   -3.0870   -1.0510    4.5140 H   0  0  0  0  0  0  0  0  0  0  0
   -4.2380    0.3090    4.4590 H   0  0  0  0  0  0  0  0  0  0  0
  1  4  2  0  0  0  0
  1 10  1  0  0  0  0
  1 15  1  0  0  0  0
  2  9  1  0  0  0  0
  2 10  2  0  0  0  0
  2 26  1  0  0  0  0
  3  4  1  0  0  0  0
  3  8  1  0  0  0  0
  3  9  2  0  0  0  0
  4  5  1  0  0  0  0
  5  6  2  0  0  0  0
  5 27  1  0  0  0  0
  6  7  1  0  0  0  0
  6 12  1  0  0  0  0
  7  8  2  0  0  0  0
  7 11  1  0  0  0  0
  8 28  1  0  0  0  0
 10 13  1  0  0  0  0
 11 22  1  0  0  0  0
 12 21  1  0  0  0  0
 13 14  3  0  0  0  0
 15 16  1  0  0  0  0
 15 29  1  0  0  0  0
 16 18  2  0  0  0  0
 16 19  1  0  0  0  0
 17 18  1  0  0  0  0
 17 23  2  0  0  0  0
 17 30  1  0  0  0  0
 18 25  1  0  0  0  0
 19 20  2  0  0  0  0
 19 31  1  0  0  0  0
 20 23  1  0  0  0  0
 20 32  1  0  0  0  0
 21 33  1  0  0  0  0
 21 34  1  0  0  0  0
 21 35  1  0  0  0  0
 22 36  1  0  0  0  0
 22 37  1  0  0  0  0
 22 38  1  0  0  0  0
 23 24  1  0  0  0  0
M  END
> <From>
www.bindingDB.org

> <BindingDB Reactant_set_id>
51022266

> <Ligand InChI>
InChI=1S/C18H13ClFN3O2/c1-24-16-6-12-15(7-17(16)25-2)22-9-10(8-21)18(12)23-14-4-3-11(19)5-13(14)20/h3-7,9H,1-2H3,(H,22,23)

> <Ligand InChI Key>
AZGVCABJHURYHG-UHFFFAOYSA-N

> <BindingDB MonomerID>
4457

> <BindingDB Ligand Name>
4-(4-Chloro-2-fluorophenylamino)-6,7-dimethoxyquinoline-3-carbonitrile::4-Phenylamino-3-quinolinecarbonitrile deriv. 2r::4-[(4-chloro-2-fluorophenyl)amino]-6,7-dimethoxyquinoline-3-carbonitrile::6,7-dialkoxyquinoline-3-carbonitrile deriv. 20

> <Target Name Assigned by Curator or DataSource>
Epidermal growth factor receptor

> <Target Source Organism According to Curator or DataSource>
Homo sapiens

> <Ki (nM)>


> <IC50 (nM)>
 13803.84

> <Kd (nM)>


> <EC50 (nM)>


> <kon (M-1-s-1)>


> <koff (s-1)>


> <pH>


> <Temp C>


> <Curation/DataSource>
ChEMBL

> <Article DOI>
10.1016/j.ejmech.2007.06.006

> <PMID>
17689836

> <PubChem AID>


> <Patent Number>


> <Authors>
San Juan, AA

> <Institution>
Korea Institute of Science and Technology

> <Link to Ligand in BindingDB>
http://www.bindingdb.org/bind/chemsearch/marvin/MolStructure.jsp?monomerid=4457

> <Link to Ligand-Target Pair in BindingDB>
http://www.bindingdb.org/jsp/dbsearch/PrimarySearch_ki.jsp?energyterm=kJ/mole&tag=pol&polymerid=520&target=Epidermal+growth+factor+receptor&column=ki&startPg=0&Increment=50&submit=Search

> <Link to Ligand-Target Pair in BindingDB>
http://www.bindingdb.org/jsp/dbsearch/PrimarySearch_ki.jsp?energyterm=kJ/mole&tag=r21&monomerid=4457&enzyme=Epidermal+growth+factor+receptor&column=ki&startPg=0&Increment=50&submit=Search

> <Ligand HET ID in PDB>


> <PDB ID(s) for Ligand-Target Complex>


> <PubChem CID>
5328852

> <PubChem SID>
8034126

> <ChEBI ID of Ligand>


> <ChEMBL ID of Ligand>


> <DrugBank ID of Ligand>


> <IUPHAR_GRAC ID of Ligand>


> <KEGG ID of Ligand>


> <ZINC ID of Ligand>
ZINC13812938

> <Number of Protein Chains in Target (bigger than 1 a multichain complex)>
1

> <BindingDB Target Chain Sequence>
MRPSGTAGAALLALLAALCPASRALEEKKVCQGTSNKLTQLGTFEDHFLSLQRMFNNCEVVLGNLEITYVQRNYDLSFLKTIQEVAGYVLIALNTVERIPLENLQIIRGNMYYENSYALAVLSNYDANKTGLKELPMRNLQEILHGAVRFSNNPALCNVESIQWRDIVSSDFLSNMSMDFQNHLGSCQKCDPSCPNGSCWGAGEENCQKLTKIICAQQCSGRCRGKSPSDCCHNQCAAGCTGPRESDCLVCRKFRDEATCKDTCPPLMLYNPTTYQMDVNPEGKYSFGATCVKKCPRNYVVTDHGSCVRACGADSYEMEEDGVRKCKKCEGPCRKVCNGIGIGEFKDSLSINATNIKHFKNCTSISGDLHILPVAFRGDSFTHTPPLDPQELDILKTVKEITGFLLIQAWPENRTDLHAFENLEIIRGRTKQHGQFSLAVVSLNITSLGLRSLKEISDGDVIISGNKNLCYANTINWKKLFGTSGQKTKIISNRGENSCKATGQVCHALCSPEGCWGPEPRDCVSCRNVSRGRECVDKCNLLEGEPREFVENSECIQCHPECLPQAMNITCTGRGPDNCIQCAHYIDGPHCVKTCPAGVMGENNTLVWKYADAGHVCHLCHPNCTYGCTGPGLEGCPTNGPKIPSIATGMVGALLLLLVVALGIGLFMRRRHIVRKRTLRRLLQERELVEPLTPSGEAPNQALLRILKETEFKKIKVLGSGAFGTVYKGLWIPEGEKVKIPVAIKELREATSPKANKEILDEAYVMASVDNPHVCRLLGICLTSTVQLITQLMPFGCLLDYVREHKDNIGSQYLLNWCVQIAKGMNYLEDRRLVHRDLAARNVLVKTPQHVKITDFGLAKLLGAEEKEYHAEGGKVPIKWMALESILHRIYTHQSDVWSYGVTVWELMTFGSKPYDGIPASEISSILEKGERLPQPPICTIDVYMIMVKCWMIDADSRPKFRELIIEFSKMARDPQRYLVIQGDERMHLPSPTDSNFYRALMDEEDMDDVVDADEYLIPQQGFFSSPSTSRTPLLSSLSATSNNSTVACIDRNGLQSCPIKEDSFLQRYSSDPTGALTEDSIDDTFLPVPEYINQSVPKRPAGSVQNPVYHNQPLNPAPSRDPHYQDPHSTAVGNPEYLNTVQPTCVNSTFDSPAHWAQKGSHQISLDNPDYQQDFFPKEAKPNGIFKGSTAENAEYLRVAPQSSEFIGA

> <PDB ID(s) of Target Chain>
1IVO,1M14,1M17,1MOX,1XKK,1Z9I,2GS2,2GS6,2ITW,2ITX,2ITY,2J5E,2J5F,2J6M,2N5S,2RF9,2RGP,3B2V,3BEL,3GOP,3POZ,3QWQ,3VJO,3W2O,3W2P,3W2Q,3W2R,3W2S,3W32,3W33,4G5J,4I23,4JQ7,4JQ8,4JR3,4JRV,4KRO,4LI5,4RJ4,4RJ5,4RJ6,4RJ7,4RJ8,4TKS,4UIP,4UV7,4WKQ,4WRG,4ZAU,5C8K,5C8M,5C8N,5CAL,5CAN,5CAO,5CAP,5CAQ,5CAS,5CAU,5CAV,5EDP,5EDQ,5EDR,5EM5,5EM6,5EM7,5EM8,5FED,5GNK,5HCX,5HCY,5HCZ,5HIB,5HIC,5UGB,5WB7,5WB8,5Y25,6D8E,6JZ0,6S89,6S8A,6VH4,6VHN,6VHP

> <UniProt (SwissProt) Recommended Name of Target Chain>
Epidermal growth factor receptor

> <UniProt (SwissProt) Entry Name of Target Chain>
EGFR_HUMAN

> <UniProt (SwissProt) Primary ID of Target Chain>
P00533

> <UniProt (SwissProt) Secondary ID(s) of Target Chain>
O00688,O00732,P06268,Q14225,Q68GS5,Q92795,Q9BZS2,Q9GZX1,Q9H2C9,Q9H3C9,Q9UMD7,Q9UMD8,Q9UMG5

> <UniProt (SwissProt) Alternative ID(s) of Target Chain>


> <UniProt (TrEMBL) Submitted Name of Target Chain>


> <UniProt (TrEMBL) Entry Name of Target Chain>


> <UniProt (TrEMBL) Primary ID of Target Chain>


> <UniProt (TrEMBL) Secondary ID(s) of Target Chain>


> <UniProt (TrEMBL) Alternative ID(s) of Target Chain>


$$$$
6_7-Dimethoxyquinoline

Vconf v2.0 Academic SN VC001-00000579
 41 43  0  0  0  0  0  0  0  0999 V2000
   -1.5520    2.8420    1.2310 C   0  0  0  0  0  0  0  0  0  0  0
   -2.7310    2.4600    0.5670 C   0  0  0  0  0  0  0  0  0  0  0
   -3.0400    1.0920    0.4250 C   0  0  0  0  0  0  0  0  0  0  0
   -2.1580    0.1210    0.9250 C   0  0  0  0  0  0  0  0  0  0  0
   -0.6600    1.8820    1.7570 C   0  0  0  0  0  0  0  0  0  0  0
   -0.9750    0.5110    1.5770 C   0  0  0  0  0  0  0  0  0  0  0
    0.5660    2.2260    2.3940 C   0  0  0  0  0  0  0  0  0  0  0
    1.0620   -0.1560    2.5970 C   0  0  0  0  0  0  0  0  0  0  0
   -0.1180   -0.4430    2.0040 N   0  0  0  0  0  0  0  0  0  0  0
   -4.1590    0.6810   -0.2250 O   0  0  0  0  0  0  0  0  0  0  0
   -5.4270    0.8520    0.4090 C   0  0  0  0  0  0  0  0  0  0  0
   -3.5470    3.4330    0.0770 O   0  0  0  0  0  0  0  0  0  0  0
   -3.6360    3.6070   -1.3390 C   0  0  0  0  0  0  0  0  0  0  0
    1.4440    1.1850    2.7980 C   0  0  0  0  0  0  0  0  0  0  0
    2.5880    1.4090    3.3780 C   0  0  0  0  0  0  0  0  0  0  0
    3.6000    1.5930    3.8900 N   0  0  0  0  0  0  0  0  0  0  0
    0.8990    3.5520    2.5840 N   0  0  0  0  0  0  0  0  0  0  0
    1.9000    4.1390    1.8430 C   0  0  0  0  0  0  0  0  0  0  0
    3.9920    5.3950    1.6000 C   0  0  0  0  0  0  0  0  0  0  0
    3.0220    4.7860    2.4220 C   0  0  0  0  0  0  0  0  0  0  0
    1.7760    4.1460    0.4350 C   0  0  0  0  0  0  0  0  0  0  0
    2.7400    4.7590   -0.3800 C   0  0  0  0  0  0  0  0  0  0  0
    3.8570    5.3780    0.2020 C   0  0  0  0  0  0  0  0  0  0  0
    0.1590    4.3300    3.5430 C   0  0  0  0  0  0  0  0  0  0  0
    5.0190    6.1200   -0.7780 Cl  0  0  0  0  0  0  0  0  0  0  0
    3.2760    4.8650    4.0980 Cl  0  0  0  0  0  0  0  0  0  0  0
   -1.3400    3.8350    1.2990 H   0  0  0  0  0  0  0  0  0  0  0
   -2.3720   -0.8690    0.7990 H   0  0  0  0  0  0  0  0  0  0  0
    1.6660   -0.9270    2.8960 H   0  0  0  0  0  0  0  0  0  0  0
   -6.2040    0.4860   -0.2630 H   0  0  0  0  0  0  0  0  0  0  0
   -5.4640    0.2760    1.3360 H   0  0  0  0  0  0  0  0  0  0  0
   -5.6150    1.9060    0.6270 H   0  0  0  0  0  0  0  0  0  0  0
   -4.3060    4.4410   -1.5500 H   0  0  0  0  0  0  0  0  0  0  0
   -2.6520    3.8340   -1.7530 H   0  0  0  0  0  0  0  0  0  0  0
   -4.0320    2.7090   -1.8150 H   0  0  0  0  0  0  0  0  0  0  0
    4.8010    5.8590    2.0220 H   0  0  0  0  0  0  0  0  0  0  0
    0.9710    3.7060   -0.0110 H   0  0  0  0  0  0  0  0  0  0  0
    2.6190    4.7510   -1.3950 H   0  0  0  0  0  0  0  0  0  0  0
    0.4370    5.3850    3.5030 H   0  0  0  0  0  0  0  0  0  0  0
   -0.9150    4.2630    3.3820 H   0  0  0  0  0  0  0  0  0  0  0
    0.3750    3.9580    4.5460 H   0  0  0  0  0  0  0  0  0  0  0
  1  2  1  0  0  0  0
  1  5  2  0  0  0  0
  1 27  1  0  0  0  0
  2  3  2  0  0  0  0
  2 12  1  0  0  0  0
  3  4  1  0  0  0  0
  3 10  1  0  0  0  0
  4  6  2  0  0  0  0
  4 28  1  0  0  0  0
  5  6  1  0  0  0  0
  5  7  1  0  0  0  0
  6  9  1  0  0  0  0
  7 14  2  0  0  0  0
  7 17  1  0  0  0  0
  8  9  2  0  0  0  0
  8 14  1  0  0  0  0
  8 29  1  0  0  0  0
 10 11  1  0  0  0  0
 11 30  1  0  0  0  0
 11 31  1  0  0  0  0
 11 32  1  0  0  0  0
 12 13  1  0  0  0  0
 13 33  1  0  0  0  0
 13 34  1  0  0  0  0
 13 35  1  0  0  0  0
 14 15  1  0  0  0  0
 15 16  3  0  0  0  0
 17 18  1  0  0  0  0
 17 24  1  0  0  0  0
 18 20  2  0  0  0  0
 18 21  1  0  0  0  0
 19 20  1  0  0  0  0
 19 23  2  0  0  0  0
 19 36  1  0  0  0  0
 20 26  1  0  0  0  0
 21 22  2  0  0  0  0
 21 37  1  0  0  0  0
 22 23  1  0  0  0  0
 22 38  1  0  0  0  0
 23 25  1  0  0  0  0
 24 39  1  0  0  0  0
 24 40  1  0  0  0  0
 24 41  1  0  0  0  0
M  END
> <From>
www.bindingDB.org

> <BindingDB Reactant_set_id>
6685

> <Ligand InChI>
InChI=1S/C19H15Cl2N3O2/c1-24(16-5-4-12(20)6-14(16)21)19-11(9-22)10-23-15-8-18(26-3)17(25-2)7-13(15)19/h4-8,10H,1-3H3

> <Ligand InChI Key>
XBUSGVWJUBPMBA-UHFFFAOYSA-N

> <BindingDB MonomerID>
4498

> <BindingDB Ligand Name>
4-(2,4-Dichlorophenylmethylamino)-6,7-dimethoxy-3-quinolinecarbonitrile::4-[(2,4-dichlorophenyl)(methyl)amino]-6,7-dimethoxyquinoline-3-carbonitrile::6,7-Dimethoxyquinoline deriv. 11

> <Target Name Assigned by Curator or DataSource>
Proto-oncogene tyrosine-protein kinase Src

> <Target Source Organism According to Curator or DataSource>


> <Ki (nM)>


> <IC50 (nM)>


> <Kd (nM)>


> <EC50 (nM)>


> <kon (M-1-s-1)>


> <koff (s-1)>


> <pH>
7.5

> <Temp C>
30.00

> <Curation/DataSource>
Curated from the literature by BindingDB

> <Article DOI>
10.1021/jm000420z

> <PMID>
11262092

> <PubChem AID>


> <Patent Number>


> <Authors>
Boschelli, DH; Wang, YD; Ye, F; Wu, B; Zhang, N; Dutia, M; Powell, DW; Wissner, A; Arndt, K; Weber, JM; Boschelli, F

> <Institution>
Wyeth-Ayerst Research

> <Link to Ligand in BindingDB>
http://www.bindingdb.org/bind/chemsearch/marvin/MolStructure.jsp?monomerid=4498

> <Link to Ligand-Target Pair in BindingDB>
http://www.bindingdb.org/jsp/dbsearch/PrimarySearch_ki.jsp?energyterm=kJ/mole&tag=pol&polymerid=13&target=Proto-oncogene+tyrosine-protein+kinase+Src&column=ki&startPg=0&Increment=50&submit=Search

> <Link to Ligand-Target Pair in BindingDB>
http://www.bindingdb.org/jsp/dbsearch/PrimarySearch_ki.jsp?energyterm=kJ/mole&tag=r21&monomerid=4498&enzyme=Proto-oncogene+tyrosine-protein+kinase+Src&column=ki&startPg=0&Increment=50&submit=Search

> <Ligand HET ID in PDB>


> <PDB ID(s) for Ligand-Target Complex>


> <PubChem CID>
5328892

> <PubChem SID>
8034167

> <ChEBI ID of Ligand>


> <ChEMBL ID of Ligand>


> <DrugBank ID of Ligand>


> <IUPHAR_GRAC ID of Ligand>


> <KEGG ID of Ligand>


> <ZINC ID of Ligand>
ZINC13862187

> <Number of Protein Chains in Target (bigger than 1 a multichain complex)>
1

> <BindingDB Target Chain Sequence>
MGSNKSKPKDASQRRRSLEPAENVHGAGGGAFPASQTPSKPASADGHRGPSAAFAPAAAEPKLFGGFNSSDTVTSPQRAGPLAGGVTTFVALYDYESRTETDLSFKKGERLQIVNNTEGDWWLAHSLSTGQTGYIPSNYVAPSDSIQAEEWYFGKITRRESERLLLNAENPRGTFLVRESETTKGAYCLSVSDFDNAKGLNVKHYKIRKLDSGGFYITSRTQFNSLQQLVAYYSKHADGLCHRLTTVCPTSKPQTQGLAKDAWEIPRESLRLEVKLGQGCFGEVWMGTWNGTTRVAIKTLKPGTMSPEAFLQEAQVMKKLRHEKLVQLYAVVSEEPIYIVTEYMSKGSLLDFLKGETGKYLRLPQLVDMAAQIASGMAYVERMNYVHRDLRAANILVGENLVCKVADFGLARLIEDNEYTARQGAKFPIKWTAPEAALYGRFTIKSDVWSFGILLTELTTKGRVPYPGMVNREVLDQVERGYRMPCPPECPESLHDLMCQCWRKEPEERPTFEYLQAFLEDYFTSTEPQYQPGENL

> <PDB ID(s) of Target Chain>
1FMK,1HCS,1HCT,1O41,1O42,1O43,1O44,1O45,1O46,1O47,1O48,1O49,1O4A,1O4B,1O4C,1O4D,1O4E,1O4F,1O4G,1O4H,1O4I,1O4J,1O4K,1O4L,1O4M,1O4N,1O4O,1O4P,1O4Q,1O4R,1SHA,1SHB,1SHD,1SPR,1SPS,1Y57,1YI6,2BDF,2BDJ,2H8H,2PTK,2SRC,4MXO,4MXX,4OML,4OMO,5OB0,5OB1,6ATE,6E6E

> <UniProt (SwissProt) Recommended Name of Target Chain>
Proto-oncogene tyrosine-protein kinase Src

> <UniProt (SwissProt) Entry Name of Target Chain>
SRC_HUMAN

> <UniProt (SwissProt) Primary ID of Target Chain>
P12931

> <UniProt (SwissProt) Secondary ID(s) of Target Chain>
E1P5V4,Q76P87,Q86VB9,Q9H5A8

> <UniProt (SwissProt) Alternative ID(s) of Target Chain>


> <UniProt (TrEMBL) Submitted Name of Target Chain>


> <UniProt (TrEMBL) Entry Name of Target Chain>


> <UniProt (TrEMBL) Primary ID of Target Chain>


> <UniProt (TrEMBL) Secondary ID(s) of Target Chain>


> <UniProt (TrEMBL) Alternative ID(s) of Target Chain>


$$$$
6_7-Dimethoxyquinoline

Vconf v2.0 Academic SN VC001-00000579
 39 41  0  0  0  0  0  0  0  0999 V2000
    1.7240    2.5800    0.3380 C   0  0  0  0  0  0  0  0  0  0  0
    3.4510    0.9340   -0.1610 C   0  0  0  0  0  0  0  0  0  0  0
    3.1100    2.2240    0.3010 C   0  0  0  0  0  0  0  0  0  0  0
    1.1980    0.3990   -0.6450 C   0  0  0  0  0  0  0  0  0  0  0
    0.7610    1.6630   -0.1760 C   0  0  0  0  0  0  0  0  0  0  0
   -0.6290    1.9320   -0.2290 C   0  0  0  0  0  0  0  0  0  0  0
   -1.5500    0.9880   -0.7330 C   0  0  0  0  0  0  0  0  0  0  0
   -1.0880   -0.2580   -1.1950 C   0  0  0  0  0  0  0  0  0  0  0
    0.2900   -0.5470   -1.1460 C   0  0  0  0  0  0  0  0  0  0  0
    2.5080    0.0820   -0.6110 N   0  0  0  0  0  0  0  0  0  0  0
    4.1850    3.0830    0.6400 C   0  0  0  0  0  0  0  0  0  0  0
   -2.8960    1.2220   -0.7990 O   0  0  0  0  0  0  0  0  0  0  0
   -3.4990    2.4400   -0.3510 C   0  0  0  0  0  0  0  0  0  0  0
   -2.0180   -1.1400   -1.6740 O   0  0  0  0  0  0  0  0  0  0  0
   -1.6720   -2.4270   -2.1930 C   0  0  0  0  0  0  0  0  0  0  0
    5.3790    2.7060    0.6120 O   0  0  0  0  0  0  0  0  0  0  0
    1.1960    3.7460    0.8470 N   0  0  0  0  0  0  0  0  0  0  0
    1.7710    4.7110    1.6040 C   0  0  0  0  0  0  0  0  0  0  0
    2.4790    7.0220    1.9480 C   0  0  0  0  0  0  0  0  0  0  0
    1.9070    6.0330    1.1230 C   0  0  0  0  0  0  0  0  0  0  0
    2.1790    4.4040    2.9180 C   0  0  0  0  0  0  0  0  0  0  0
    2.7500    5.3920    3.7360 C   0  0  0  0  0  0  0  0  0  0  0
    2.9030    6.7040    3.2520 C   0  0  0  0  0  0  0  0  0  0  0
    3.5900    7.8950    4.2380 Cl  0  0  0  0  0  0  0  0  0  0  0
    1.4050    6.4640   -0.4380 Cl  0  0  0  0  0  0  0  0  0  0  0
    4.4250    0.6280   -0.1890 H   0  0  0  0  0  0  0  0  0  0  0
   -0.9890    2.8250    0.1010 H   0  0  0  0  0  0  0  0  0  0  0
    0.6360   -1.4480   -1.4760 H   0  0  0  0  0  0  0  0  0  0  0
    4.0290    4.0570    0.8780 H   0  0  0  0  0  0  0  0  0  0  0
   -4.5750    2.3780   -0.5110 H   0  0  0  0  0  0  0  0  0  0  0
   -3.3090    2.5860    0.7140 H   0  0  0  0  0  0  0  0  0  0  0
   -3.1070    3.2870   -0.9150 H   0  0  0  0  0  0  0  0  0  0  0
   -2.5830   -2.9380   -2.5030 H   0  0  0  0  0  0  0  0  0  0  0
   -1.0140   -2.3210   -3.0570 H   0  0  0  0  0  0  0  0  0  0  0
   -1.1780   -3.0250   -1.4250 H   0  0  0  0  0  0  0  0  0  0  0
    0.2520    3.8880    0.6900 H   0  0  0  0  0  0  0  0  0  0  0
    2.5870    7.9770    1.6000 H   0  0  0  0  0  0  0  0  0  0  0
    2.0660    3.4560    3.2800 H   0  0  0  0  0  0  0  0  0  0  0
    3.0480    5.1490    4.6820 H   0  0  0  0  0  0  0  0  0  0  0
  1  3  1  0  0  0  0
  1  5  2  0  0  0  0
  1 17  1  0  0  0  0
  2  3  2  0  0  0  0
  2 10  1  0  0  0  0
  2 26  1  0  0  0  0
  3 11  1  0  0  0  0
  4  5  1  0  0  0  0
  4  9  1  0  0  0  0
  4 10  2  0  0  0  0
  5  6  1  0  0  0  0
  6  7  2  0  0  0  0
  6 27  1  0  0  0  0
  7  8  1  0  0  0  0
  7 12  1  0  0  0  0
  8  9  2  0  0  0  0
  8 14  1  0  0  0  0
  9 28  1  0  0  0  0
 11 16  2  0  0  0  0
 11 29  1  0  0  0  0
 12 13  1  0  0  0  0
 13 30  1  0  0  0  0
 13 31  1  0  0  0  0
 13 32  1  0  0  0  0
 14 15  1  0  0  0  0
 15 33  1  0  0  0  0
 15 34  1  0  0  0  0
 15 35  1  0  0  0  0
 17 18  1  0  0  0  0
 17 36  1  0  0  0  0
 18 20  2  0  0  0  0
 18 21  1  0  0  0  0
 19 20  1  0  0  0  0
 19 23  2  0  0  0  0
 19 37  1  0  0  0  0
 20 25  1  0  0  0  0
 21 22  2  0  0  0  0
 21 38  1  0  0  0  0
 22 23  1  0  0  0  0
 22 39  1  0  0  0  0
 23 24  1  0  0  0  0
M  END
> <From>
www.bindingDB.org

> <BindingDB Reactant_set_id>
6686

> <Ligand InChI>
InChI=1S/C18H14Cl2N2O3/c1-24-16-6-12-15(7-17(16)25-2)21-8-10(9-23)18(12)22-14-4-3-11(19)5-13(14)20/h3-9H,1-2H3,(H,21,22)

> <Ligand InChI Key>
SKRRXMAIMHHNCD-UHFFFAOYSA-N

> <BindingDB MonomerID>
4499

> <BindingDB Ligand Name>
4-[(2,4-Dichlorophenyl)amino]-6,7-dimethoxy-3-quinolinecarbaldehyde::4-[(2,4-dichlorophenyl)amino]-6,7-dimethoxyquinoline-3-carbaldehyde::6,7-Dimethoxyquinoline deriv. 17

> <Target Name Assigned by Curator or DataSource>
Proto-oncogene tyrosine-protein kinase Src

> <Target Source Organism According to Curator or DataSource>


> <Ki (nM)>


> <IC50 (nM)>
 250

> <Kd (nM)>


> <EC50 (nM)>


> <kon (M-1-s-1)>


> <koff (s-1)>


> <pH>
7.5

> <Temp C>
30.00

> <Curation/DataSource>
Curated from the literature by BindingDB

> <Article DOI>
10.1021/jm000420z

> <PMID>
11262092

> <PubChem AID>


> <Patent Number>


> <Authors>
Boschelli, DH; Wang, YD; Ye, F; Wu, B; Zhang, N; Dutia, M; Powell, DW; Wissner, A; Arndt, K; Weber, JM; Boschelli, F

> <Institution>
Wyeth-Ayerst Research

> <Link to Ligand in BindingDB>
http://www.bindingdb.org/bind/chemsearch/marvin/MolStructure.jsp?monomerid=4499

> <Link to Ligand-Target Pair in BindingDB>
http://www.bindingdb.org/jsp/dbsearch/PrimarySearch_ki.jsp?energyterm=kJ/mole&tag=pol&polymerid=13&target=Proto-oncogene+tyrosine-protein+kinase+Src&column=ki&startPg=0&Increment=50&submit=Search

> <Link to Ligand-Target Pair in BindingDB>
http://www.bindingdb.org/jsp/dbsearch/PrimarySearch_ki.jsp?energyterm=kJ/mole&tag=r21&monomerid=4499&enzyme=Proto-oncogene+tyrosine-protein+kinase+Src&column=ki&startPg=0&Increment=50&submit=Search

> <Ligand HET ID in PDB>


> <PDB ID(s) for Ligand-Target Complex>


> <PubChem CID>
5328893

> <PubChem SID>
8034168

> <ChEBI ID of Ligand>


> <ChEMBL ID of Ligand>


> <DrugBank ID of Ligand>


> <IUPHAR_GRAC ID of Ligand>


> <KEGG ID of Ligand>


> <ZINC ID of Ligand>
ZINC13862192

> <Number of Protein Chains in Target (bigger than 1 a multichain complex)>
1

> <BindingDB Target Chain Sequence>
MGSNKSKPKDASQRRRSLEPAENVHGAGGGAFPASQTPSKPASADGHRGPSAAFAPAAAEPKLFGGFNSSDTVTSPQRAGPLAGGVTTFVALYDYESRTETDLSFKKGERLQIVNNTEGDWWLAHSLSTGQTGYIPSNYVAPSDSIQAEEWYFGKITRRESERLLLNAENPRGTFLVRESETTKGAYCLSVSDFDNAKGLNVKHYKIRKLDSGGFYITSRTQFNSLQQLVAYYSKHADGLCHRLTTVCPTSKPQTQGLAKDAWEIPRESLRLEVKLGQGCFGEVWMGTWNGTTRVAIKTLKPGTMSPEAFLQEAQVMKKLRHEKLVQLYAVVSEEPIYIVTEYMSKGSLLDFLKGETGKYLRLPQLVDMAAQIASGMAYVERMNYVHRDLRAANILVGENLVCKVADFGLARLIEDNEYTARQGAKFPIKWTAPEAALYGRFTIKSDVWSFGILLTELTTKGRVPYPGMVNREVLDQVERGYRMPCPPECPESLHDLMCQCWRKEPEERPTFEYLQAFLEDYFTSTEPQYQPGENL

> <PDB ID(s) of Target Chain>
1FMK,1HCS,1HCT,1O41,1O42,1O43,1O44,1O45,1O46,1O47,1O48,1O49,1O4A,1O4B,1O4C,1O4D,1O4E,1O4F,1O4G,1O4H,1O4I,1O4J,1O4K,1O4L,1O4M,1O4N,1O4O,1O4P,1O4Q,1O4R,1SHA,1SHB,1SHD,1SPR,1SPS,1Y57,1YI6,2BDF,2BDJ,2H8H,2PTK,2SRC,4MXO,4MXX,4OML,4OMO,5OB0,5OB1,6ATE,6E6E

> <UniProt (SwissProt) Recommended Name of Target Chain>
Proto-oncogene tyrosine-protein kinase Src

> <UniProt (SwissProt) Entry Name of Target Chain>
SRC_HUMAN

> <UniProt (SwissProt) Primary ID of Target Chain>
P12931

> <UniProt (SwissProt) Secondary ID(s) of Target Chain>
E1P5V4,Q76P87,Q86VB9,Q9H5A8

> <UniProt (SwissProt) Alternative ID(s) of Target Chain>


> <UniProt (TrEMBL) Submitted Name of Target Chain>


> <UniProt (TrEMBL) Entry Name of Target Chain>


> <UniProt (TrEMBL) Primary ID of Target Chain>


> <UniProt (TrEMBL) Secondary ID(s) of Target Chain>


> <UniProt (TrEMBL) Alternative ID(s) of Target Chain>


$$$$
3-quinolinecarbonitrile

Vconf v2.0 Academic SN VC001-00000579
 34 36  0  0  0  0  0  0  0  0999 V2000
   -0.7240    1.5040    0.8950 C   0  0  0  0  0  0  0  0  0  0  0
   -0.6370    0.2680    0.2290 C   0  0  0  0  0  0  0  0  0  0  0
    0.3860   -0.6350    0.5520 C   0  0  0  0  0  0  0  0  0  0  0
    1.2420    0.9240    2.2550 C   0  0  0  0  0  0  0  0  0  0  0
    1.3200   -0.3090    1.5490 C   0  0  0  0  0  0  0  0  0  0  0
    3.2890   -0.9230    2.7180 C   0  0  0  0  0  0  0  0  0  0  0
    2.3260   -1.1740    1.8040 N   0  0  0  0  0  0  0  0  0  0  0
    3.2800    0.2770    3.4510 C   0  0  0  0  0  0  0  0  0  0  0
    4.2210    0.4240    4.3400 C   0  0  0  0  0  0  0  0  0  0  0
    5.0500    0.5520    5.1210 N   0  0  0  0  0  0  0  0  0  0  0
    2.2550    1.2390    3.2050 C   0  0  0  0  0  0  0  0  0  0  0
    2.2080    2.5010    3.7660 N   0  0  0  0  0  0  0  0  0  0  0
    3.2550    3.1820    4.3100 C   0  0  0  0  0  0  0  0  0  0  0
    5.4340    4.2660    4.0870 C   0  0  0  0  0  0  0  0  0  0  0
    4.3220    3.6390    3.4980 C   0  0  0  0  0  0  0  0  0  0  0
    3.2890    3.4310    5.6980 C   0  0  0  0  0  0  0  0  0  0  0
    4.4020    4.0640    6.2800 C   0  0  0  0  0  0  0  0  0  0  0
    5.4800    4.4740    5.4770 C   0  0  0  0  0  0  0  0  0  0  0
    4.3270    3.4440    1.8140 Cl  0  0  0  0  0  0  0  0  0  0  0
    6.8320    5.2150    6.1710 Cl  0  0  0  0  0  0  0  0  0  0  0
    0.1960    1.8160    1.9120 C   0  0  0  0  0  0  0  0  0  0  0
   -1.6770    2.4100    0.5600 O   0  0  0  0  0  0  0  0  0  0  0
   -1.6090    3.0240   -0.7320 C   0  0  0  0  0  0  0  0  0  0  0
   -1.3120    0.0320   -0.5010 H   0  0  0  0  0  0  0  0  0  0  0
    0.4640   -1.5180    0.0460 H   0  0  0  0  0  0  0  0  0  0  0
    4.0240   -1.6190    2.8590 H   0  0  0  0  0  0  0  0  0  0  0
    1.4030    3.0140    3.6310 H   0  0  0  0  0  0  0  0  0  0  0
    6.2170    4.5660    3.5020 H   0  0  0  0  0  0  0  0  0  0  0
    2.5220    3.1240    6.2990 H   0  0  0  0  0  0  0  0  0  0  0
    4.4280    4.2080    7.2890 H   0  0  0  0  0  0  0  0  0  0  0
    0.1090    2.7190    2.3800 H   0  0  0  0  0  0  0  0  0  0  0
   -2.4670    3.6850   -0.8560 H   0  0  0  0  0  0  0  0  0  0  0
   -0.6960    3.6160   -0.8180 H   0  0  0  0  0  0  0  0  0  0  0
   -1.6290    2.2730   -1.5240 H   0  0  0  0  0  0  0  0  0  0  0
  1  2  2  0  0  0  0
  1 21  1  0  0  0  0
  1 22  1  0  0  0  0
  2  3  1  0  0  0  0
  2 24  1  0  0  0  0
  3  5  2  0  0  0  0
  3 25  1  0  0  0  0
  4  5  1  0  0  0  0
  4 11  1  0  0  0  0
  4 21  2  0  0  0  0
  5  7  1  0  0  0  0
  6  7  2  0  0  0  0
  6  8  1  0  0  0  0
  6 26  1  0  0  0  0
  8  9  1  0  0  0  0
  8 11  2  0  0  0  0
  9 10  3  0  0  0  0
 11 12  1  0  0  0  0
 12 13  1  0  0  0  0
 12 27  1  0  0  0  0
 13 15  2  0  0  0  0
 13 16  1  0  0  0  0
 14 15  1  0  0  0  0
 14 18  2  0  0  0  0
 14 28  1  0  0  0  0
 15 19  1  0  0  0  0
 16 17  2  0  0  0  0
 16 29  1  0  0  0  0
 17 18  1  0  0  0  0
 17 30  1  0  0  0  0
 18 20  1  0  0  0  0
 21 31  1  0  0  0  0
 22 23  1  0  0  0  0
 23 32  1  0  0  0  0
 23 33  1  0  0  0  0
 23 34  1  0  0  0  0
M  END
> <From>
www.bindingDB.org

> <BindingDB Reactant_set_id>
6688

> <Ligand InChI>
InChI=1S/C17H11Cl2N3O/c1-23-12-3-5-15-13(7-12)17(10(8-20)9-21-15)22-16-4-2-11(18)6-14(16)19/h2-7,9H,1H3,(H,21,22)

> <Ligand InChI Key>
KDJCJVULTPFHRD-UHFFFAOYSA-N

> <BindingDB MonomerID>
4501

> <BindingDB Ligand Name>
3-quinolinecarbonitrile deriv. 2d::4-[(2,4-Dichlorophenyl)amino]-6-methoxy-3-quinolinecarbonitrile::4-[(2,4-dichlorophenyl)amino]-6-methoxyquinoline-3-carbonitrile

> <Target Name Assigned by Curator or DataSource>
Proto-oncogene tyrosine-protein kinase Src

> <Target Source Organism According to Curator or DataSource>


> <Ki (nM)>


> <IC50 (nM)>
 320

> <Kd (nM)>


> <EC50 (nM)>


> <kon (M-1-s-1)>


> <koff (s-1)>


> <pH>
7.5

> <Temp C>
30.00

> <Curation/DataSource>
Curated from the literature by BindingDB

> <Article DOI>
10.1021/jm000420z

> <PMID>
11262092

> <PubChem AID>


> <Patent Number>


> <Authors>
Boschelli, DH; Wang, YD; Ye, F; Wu, B; Zhang, N; Dutia, M; Powell, DW; Wissner, A; Arndt, K; Weber, JM; Boschelli, F

> <Institution>
Wyeth-Ayerst Research

> <Link to Ligand in BindingDB>
http://www.bindingdb.org/bind/chemsearch/marvin/MolStructure.jsp?monomerid=4501

> <Link to Ligand-Target Pair in BindingDB>
http://www.bindingdb.org/jsp/dbsearch/PrimarySearch_ki.jsp?energyterm=kJ/mole&tag=pol&polymerid=13&target=Proto-oncogene+tyrosine-protein+kinase+Src&column=ki&startPg=0&Increment=50&submit=Search

> <Link to Ligand-Target Pair in BindingDB>
http://www.bindingdb.org/jsp/dbsearch/PrimarySearch_ki.jsp?energyterm=kJ/mole&tag=r21&monomerid=4501&enzyme=Proto-oncogene+tyrosine-protein+kinase+Src&column=ki&startPg=0&Increment=50&submit=Search

> <Ligand HET ID in PDB>


> <PDB ID(s) for Ligand-Target Complex>


> <PubChem CID>
5328895

> <PubChem SID>
8034170

> <ChEBI ID of Ligand>


> <ChEMBL ID of Ligand>


> <DrugBank ID of Ligand>


> <IUPHAR_GRAC ID of Ligand>


> <KEGG ID of Ligand>


> <ZINC ID of Ligand>
ZINC13862197

> <Number of Protein Chains in Target (bigger than 1 a multichain complex)>
1

> <BindingDB Target Chain Sequence>
MGSNKSKPKDASQRRRSLEPAENVHGAGGGAFPASQTPSKPASADGHRGPSAAFAPAAAEPKLFGGFNSSDTVTSPQRAGPLAGGVTTFVALYDYESRTETDLSFKKGERLQIVNNTEGDWWLAHSLSTGQTGYIPSNYVAPSDSIQAEEWYFGKITRRESERLLLNAENPRGTFLVRESETTKGAYCLSVSDFDNAKGLNVKHYKIRKLDSGGFYITSRTQFNSLQQLVAYYSKHADGLCHRLTTVCPTSKPQTQGLAKDAWEIPRESLRLEVKLGQGCFGEVWMGTWNGTTRVAIKTLKPGTMSPEAFLQEAQVMKKLRHEKLVQLYAVVSEEPIYIVTEYMSKGSLLDFLKGETGKYLRLPQLVDMAAQIASGMAYVERMNYVHRDLRAANILVGENLVCKVADFGLARLIEDNEYTARQGAKFPIKWTAPEAALYGRFTIKSDVWSFGILLTELTTKGRVPYPGMVNREVLDQVERGYRMPCPPECPESLHDLMCQCWRKEPEERPTFEYLQAFLEDYFTSTEPQYQPGENL

> <PDB ID(s) of Target Chain>
1FMK,1HCS,1HCT,1O41,1O42,1O43,1O44,1O45,1O46,1O47,1O48,1O49,1O4A,1O4B,1O4C,1O4D,1O4E,1O4F,1O4G,1O4H,1O4I,1O4J,1O4K,1O4L,1O4M,1O4N,1O4O,1O4P,1O4Q,1O4R,1SHA,1SHB,1SHD,1SPR,1SPS,1Y57,1YI6,2BDF,2BDJ,2H8H,2PTK,2SRC,4MXO,4MXX,4OML,4OMO,5OB0,5OB1,6ATE,6E6E

> <UniProt (SwissProt) Recommended Name of Target Chain>
Proto-oncogene tyrosine-protein kinase Src

> <UniProt (SwissProt) Entry Name of Target Chain>
SRC_HUMAN

> <UniProt (SwissProt) Primary ID of Target Chain>
P12931

> <UniProt (SwissProt) Secondary ID(s) of Target Chain>
E1P5V4,Q76P87,Q86VB9,Q9H5A8

> <UniProt (SwissProt) Alternative ID(s) of Target Chain>


> <UniProt (TrEMBL) Submitted Name of Target Chain>


> <UniProt (TrEMBL) Entry Name of Target Chain>


> <UniProt (TrEMBL) Primary ID of Target Chain>


> <UniProt (TrEMBL) Secondary ID(s) of Target Chain>


> <UniProt (TrEMBL) Alternative ID(s) of Target Chain>


$$$$
3-quinolinecarbonitrile

Vconf v2.0 Academic SN VC001-00000579
 34 36  0  0  0  0  0  0  0  0999 V2000
   -0.7480    1.4980    0.9370 C   0  0  0  0  0  0  0  0  0  0  0
   -0.6630    0.2650    0.2700 C   0  0  0  0  0  0  0  0  0  0  0
    0.3590   -0.6370    0.5930 C   0  0  0  0  0  0  0  0  0  0  0
    1.2440    0.9420    2.2650 C   0  0  0  0  0  0  0  0  0  0  0
    1.3050   -0.3010    1.5770 C   0  0  0  0  0  0  0  0  0  0  0
    3.2890   -0.9080    2.7270 C   0  0  0  0  0  0  0  0  0  0  0
    2.3120   -1.1710    1.8310 N   0  0  0  0  0  0  0  0  0  0  0
    3.2960    0.3030    3.4370 C   0  0  0  0  0  0  0  0  0  0  0
    4.2450    0.4640    4.3150 C   0  0  0  0  0  0  0  0  0  0  0
    5.0810    0.6010    5.0860 N   0  0  0  0  0  0  0  0  0  0  0
    2.2700    1.2600    3.1950 C   0  0  0  0  0  0  0  0  0  0  0
    2.2270    2.5240    3.7480 N   0  0  0  0  0  0  0  0  0  0  0
    3.3050    3.2220    4.2050 C   0  0  0  0  0  0  0  0  0  0  0
    5.4960    4.2540    3.8860 C   0  0  0  0  0  0  0  0  0  0  0
    4.3760    3.5920    3.3550 C   0  0  0  0  0  0  0  0  0  0  0
    3.3570    3.5800    5.5660 C   0  0  0  0  0  0  0  0  0  0  0
    4.4760    4.2500    6.0880 C   0  0  0  0  0  0  0  0  0  0  0
    5.5490    4.5850    5.2490 C   0  0  0  0  0  0  0  0  0  0  0
    4.3770    3.2590    1.6870 Cl  0  0  0  0  0  0  0  0  0  0  0
    6.9120    5.3720    5.8730 Cl  0  0  0  0  0  0  0  0  0  0  0
    0.2000    1.8350    1.9190 C   0  0  0  0  0  0  0  0  0  0  0
   -1.5580   -0.0380   -0.7020 O   0  0  0  0  0  0  0  0  0  0  0
   -1.1340    0.1090   -2.0600 C   0  0  0  0  0  0  0  0  0  0  0
   -1.4800    2.1610    0.6950 H   0  0  0  0  0  0  0  0  0  0  0
    0.4330   -1.5240    0.0980 H   0  0  0  0  0  0  0  0  0  0  0
    4.0210   -1.6150    2.8680 H   0  0  0  0  0  0  0  0  0  0  0
    1.3980    3.0150    3.6830 H   0  0  0  0  0  0  0  0  0  0  0
    6.2860    4.4890    3.2750 H   0  0  0  0  0  0  0  0  0  0  0
    2.5840    3.3310    6.1950 H   0  0  0  0  0  0  0  0  0  0  0
    4.5040    4.4760    7.0850 H   0  0  0  0  0  0  0  0  0  0  0
    0.1350    2.7530    2.3630 H   0  0  0  0  0  0  0  0  0  0  0
   -1.9490   -0.1930   -2.7190 H   0  0  0  0  0  0  0  0  0  0  0
   -0.8840    1.1520   -2.2620 H   0  0  0  0  0  0  0  0  0  0  0
   -0.2640   -0.5190   -2.2640 H   0  0  0  0  0  0  0  0  0  0  0
  1  2  2  0  0  0  0
  1 21  1  0  0  0  0
  1 24  1  0  0  0  0
  2  3  1  0  0  0  0
  2 22  1  0  0  0  0
  3  5  2  0  0  0  0
  3 25  1  0  0  0  0
  4  5  1  0  0  0  0
  4 11  1  0  0  0  0
  4 21  2  0  0  0  0
  5  7  1  0  0  0  0
  6  7  2  0  0  0  0
  6  8  1  0  0  0  0
  6 26  1  0  0  0  0
  8  9  1  0  0  0  0
  8 11  2  0  0  0  0
  9 10  3  0  0  0  0
 11 12  1  0  0  0  0
 12 13  1  0  0  0  0
 12 27  1  0  0  0  0
 13 15  2  0  0  0  0
 13 16  1  0  0  0  0
 14 15  1  0  0  0  0
 14 18  2  0  0  0  0
 14 28  1  0  0  0  0
 15 19  1  0  0  0  0
 16 17  2  0  0  0  0
 16 29  1  0  0  0  0
 17 18  1  0  0  0  0
 17 30  1  0  0  0  0
 18 20  1  0  0  0  0
 21 31  1  0  0  0  0
 22 23  1  0  0  0  0
 23 32  1  0  0  0  0
 23 33  1  0  0  0  0
 23 34  1  0  0  0  0
M  END
> <From>
www.bindingDB.org

> <BindingDB Reactant_set_id>
6689

> <Ligand InChI>
InChI=1S/C17H11Cl2N3O/c1-23-12-3-4-13-16(7-12)21-9-10(8-20)17(13)22-15-5-2-11(18)6-14(15)19/h2-7,9H,1H3,(H,21,22)

> <Ligand InChI Key>
KMKWLRZDVAXHFT-UHFFFAOYSA-N

> <BindingDB MonomerID>
4502

> <BindingDB Ligand Name>
3-quinolinecarbonitrile deriv. 2e::4-[(2,4-Dichlorophenyl)amino]-7-methoxy-3-quinolinecarbonitrile::4-[(2,4-dichlorophenyl)amino]-7-methoxyquinoline-3-carbonitrile

> <Target Name Assigned by Curator or DataSource>
Proto-oncogene tyrosine-protein kinase Src

> <Target Source Organism According to Curator or DataSource>


> <Ki (nM)>


> <IC50 (nM)>
 200

> <Kd (nM)>


> <EC50 (nM)>


> <kon (M-1-s-1)>


> <koff (s-1)>


> <pH>
7.5

> <Temp C>
30.00

> <Curation/DataSource>
Curated from the literature by BindingDB

> <Article DOI>
10.1021/jm000420z

> <PMID>
11262092

> <PubChem AID>


> <Patent Number>


> <Authors>
Boschelli, DH; Wang, YD; Ye, F; Wu, B; Zhang, N; Dutia, M; Powell, DW; Wissner, A; Arndt, K; Weber, JM; Boschelli, F

> <Institution>
Wyeth-Ayerst Research

> <Link to Ligand in BindingDB>
http://www.bindingdb.org/bind/chemsearch/marvin/MolStructure.jsp?monomerid=4502

> <Link to Ligand-Target Pair in BindingDB>
http://www.bindingdb.org/jsp/dbsearch/PrimarySearch_ki.jsp?energyterm=kJ/mole&tag=pol&polymerid=13&target=Proto-oncogene+tyrosine-protein+kinase+Src&column=ki&startPg=0&Increment=50&submit=Search

> <Link to Ligand-Target Pair in BindingDB>
http://www.bindingdb.org/jsp/dbsearch/PrimarySearch_ki.jsp?energyterm=kJ/mole&tag=r21&monomerid=4502&enzyme=Proto-oncogene+tyrosine-protein+kinase+Src&column=ki&startPg=0&Increment=50&submit=Search

> <Ligand HET ID in PDB>


> <PDB ID(s) for Ligand-Target Complex>


> <PubChem CID>
5328896

> <PubChem SID>
8034171

> <ChEBI ID of Ligand>


> <ChEMBL ID of Ligand>


> <DrugBank ID of Ligand>


> <IUPHAR_GRAC ID of Ligand>


> <KEGG ID of Ligand>


> <ZINC ID of Ligand>
ZINC13862198

> <Number of Protein Chains in Target (bigger than 1 a multichain complex)>
1

> <BindingDB Target Chain Sequence>
MGSNKSKPKDASQRRRSLEPAENVHGAGGGAFPASQTPSKPASADGHRGPSAAFAPAAAEPKLFGGFNSSDTVTSPQRAGPLAGGVTTFVALYDYESRTETDLSFKKGERLQIVNNTEGDWWLAHSLSTGQTGYIPSNYVAPSDSIQAEEWYFGKITRRESERLLLNAENPRGTFLVRESETTKGAYCLSVSDFDNAKGLNVKHYKIRKLDSGGFYITSRTQFNSLQQLVAYYSKHADGLCHRLTTVCPTSKPQTQGLAKDAWEIPRESLRLEVKLGQGCFGEVWMGTWNGTTRVAIKTLKPGTMSPEAFLQEAQVMKKLRHEKLVQLYAVVSEEPIYIVTEYMSKGSLLDFLKGETGKYLRLPQLVDMAAQIASGMAYVERMNYVHRDLRAANILVGENLVCKVADFGLARLIEDNEYTARQGAKFPIKWTAPEAALYGRFTIKSDVWSFGILLTELTTKGRVPYPGMVNREVLDQVERGYRMPCPPECPESLHDLMCQCWRKEPEERPTFEYLQAFLEDYFTSTEPQYQPGENL

> <PDB ID(s) of Target Chain>
1FMK,1HCS,1HCT,1O41,1O42,1O43,1O44,1O45,1O46,1O47,1O48,1O49,1O4A,1O4B,1O4C,1O4D,1O4E,1O4F,1O4G,1O4H,1O4I,1O4J,1O4K,1O4L,1O4M,1O4N,1O4O,1O4P,1O4Q,1O4R,1SHA,1SHB,1SHD,1SPR,1SPS,1Y57,1YI6,2BDF,2BDJ,2H8H,2PTK,2SRC,4MXO,4MXX,4OML,4OMO,5OB0,5OB1,6ATE,6E6E

> <UniProt (SwissProt) Recommended Name of Target Chain>
Proto-oncogene tyrosine-protein kinase Src

> <UniProt (SwissProt) Entry Name of Target Chain>
SRC_HUMAN

> <UniProt (SwissProt) Primary ID of Target Chain>
P12931

> <UniProt (SwissProt) Secondary ID(s) of Target Chain>
E1P5V4,Q76P87,Q86VB9,Q9H5A8

> <UniProt (SwissProt) Alternative ID(s) of Target Chain>


> <UniProt (TrEMBL) Submitted Name of Target Chain>


> <UniProt (TrEMBL) Entry Name of Target Chain>


> <UniProt (TrEMBL) Primary ID of Target Chain>


> <UniProt (TrEMBL) Secondary ID(s) of Target Chain>


> <UniProt (TrEMBL) Alternative ID(s) of Target Chain>


$$$$
3-quinolinecarbonitrile

Vconf v2.0 Academic SN VC001-00000579
 38 40  0  0  0  0  0  0  0  0999 V2000
   -0.7390    1.4850    0.9150 C   0  0  0  0  0  0  0  0  0  0  0
   -0.6700    0.2430    0.2710 C   0  0  0  0  0  0  0  0  0  0  0
    0.3390   -0.6640    0.6250 C   0  0  0  0  0  0  0  0  0  0  0
    1.2650    0.9560    2.2420 C   0  0  0  0  0  0  0  0  0  0  0
    1.2920   -0.3110    1.5940 C   0  0  0  0  0  0  0  0  0  0  0
    3.2640   -0.9510    2.7430 C   0  0  0  0  0  0  0  0  0  0  0
    2.2740   -1.1990    1.8620 N   0  0  0  0  0  0  0  0  0  0  0
    3.3050    0.2740    3.4290 C   0  0  0  0  0  0  0  0  0  0  0
    4.2680    0.4090    4.2930 C   0  0  0  0  0  0  0  0  0  0  0
    5.1200    0.5270    5.0560 N   0  0  0  0  0  0  0  0  0  0  0
    2.3110    1.2650    3.1640 C   0  0  0  0  0  0  0  0  0  0  0
    2.3340    2.5390    3.6930 N   0  0  0  0  0  0  0  0  0  0  0
    3.4040    3.1920    4.2160 C   0  0  0  0  0  0  0  0  0  0  0
    5.6070    4.2110    3.9500 C   0  0  0  0  0  0  0  0  0  0  0
    4.4720    3.6050    3.3830 C   0  0  0  0  0  0  0  0  0  0  0
    3.4530    3.4690    5.5980 C   0  0  0  0  0  0  0  0  0  0  0
    4.5910    4.0790    6.1570 C   0  0  0  0  0  0  0  0  0  0  0
    5.6760    4.4360    5.3360 C   0  0  0  0  0  0  0  0  0  0  0
    4.4470    3.3860    1.7010 Cl  0  0  0  0  0  0  0  0  0  0  0
    7.0660    5.1310    6.0040 Cl  0  0  0  0  0  0  0  0  0  0  0
    0.2280    1.8550    1.8680 C   0  0  0  0  0  0  0  0  0  0  0
   -1.5700   -0.0590   -0.7010 O   0  0  0  0  0  0  0  0  0  0  0
   -1.1330    0.0110   -2.0620 C   0  0  0  0  0  0  0  0  0  0  0
    0.1200    3.1110    2.3770 O   0  0  0  0  0  0  0  0  0  0  0
    0.5430    4.2100    1.5650 C   0  0  0  0  0  0  0  0  0  0  0
   -1.4810    2.1400    0.6690 H   0  0  0  0  0  0  0  0  0  0  0
    0.3890   -1.5710    0.1590 H   0  0  0  0  0  0  0  0  0  0  0
    3.9820   -1.6660    2.8920 H   0  0  0  0  0  0  0  0  0  0  0
    1.5580    3.0920    3.5410 H   0  0  0  0  0  0  0  0  0  0  0
    6.3860    4.4870    3.3490 H   0  0  0  0  0  0  0  0  0  0  0
    2.6720    3.2080    6.2040 H   0  0  0  0  0  0  0  0  0  0  0
    4.6270    4.2550    7.1630 H   0  0  0  0  0  0  0  0  0  0  0
   -1.9560   -0.2810   -2.7150 H   0  0  0  0  0  0  0  0  0  0  0
   -0.8330    1.0310   -2.3100 H   0  0  0  0  0  0  0  0  0  0  0
   -0.2930   -0.6640   -2.2320 H   0  0  0  0  0  0  0  0  0  0  0
    0.3520    5.1400    2.1010 H   0  0  0  0  0  0  0  0  0  0  0
    1.6110    4.1400    1.3550 H   0  0  0  0  0  0  0  0  0  0  0
   -0.0060    4.2290    0.6230 H   0  0  0  0  0  0  0  0  0  0  0
  1  2  2  0  0  0  0
  1 21  1  0  0  0  0
  1 26  1  0  0  0  0
  2  3  1  0  0  0  0
  2 22  1  0  0  0  0
  3  5  2  0  0  0  0
  3 27  1  0  0  0  0
  4  5  1  0  0  0  0
  4 11  1  0  0  0  0
  4 21  2  0  0  0  0
  5  7  1  0  0  0  0
  6  7  2  0  0  0  0
  6  8  1  0  0  0  0
  6 28  1  0  0  0  0
  8  9  1  0  0  0  0
  8 11  2  0  0  0  0
  9 10  3  0  0  0  0
 11 12  1  0  0  0  0
 12 13  1  0  0  0  0
 12 29  1  0  0  0  0
 13 15  2  0  0  0  0
 13 16  1  0  0  0  0
 14 15  1  0  0  0  0
 14 18  2  0  0  0  0
 14 30  1  0  0  0  0
 15 19  1  0  0  0  0
 16 17  2  0  0  0  0
 16 31  1  0  0  0  0
 17 18  1  0  0  0  0
 17 32  1  0  0  0  0
 18 20  1  0  0  0  0
 21 24  1  0  0  0  0
 22 23  1  0  0  0  0
 23 33  1  0  0  0  0
 23 34  1  0  0  0  0
 23 35  1  0  0  0  0
 24 25  1  0  0  0  0
 25 36  1  0  0  0  0
 25 37  1  0  0  0  0
 25 38  1  0  0  0  0
M  END
> <From>
www.bindingDB.org

> <BindingDB Reactant_set_id>
6690

> <Ligand InChI>
InChI=1S/C18H13Cl2N3O2/c1-24-12-6-15-17(16(7-12)25-2)18(10(8-21)9-22-15)23-14-4-3-11(19)5-13(14)20/h3-7,9H,1-2H3,(H,22,23)

> <Ligand InChI Key>
MRLFXKDPVRSCIY-UHFFFAOYSA-N

> <BindingDB MonomerID>
4503

> <BindingDB Ligand Name>
3-quinolinecarbonitrile deriv. 2g::4-[(2,4-Dichlorophenyl)amino]-5,7-dimethoxy-3-quinolinecarbonitrile::4-[(2,4-dichlorophenyl)amino]-5,7-dimethoxyquinoline-3-carbonitrile

> <Target Name Assigned by Curator or DataSource>
Proto-oncogene tyrosine-protein kinase Src

> <Target Source Organism According to Curator or DataSource>


> <Ki (nM)>


> <IC50 (nM)>


> <Kd (nM)>


> <EC50 (nM)>


> <kon (M-1-s-1)>


> <koff (s-1)>


> <pH>
7.5

> <Temp C>
30.00

> <Curation/DataSource>
Curated from the literature by BindingDB

> <Article DOI>
10.1021/jm000420z

> <PMID>
11262092

> <PubChem AID>


> <Patent Number>


> <Authors>
Boschelli, DH; Wang, YD; Ye, F; Wu, B; Zhang, N; Dutia, M; Powell, DW; Wissner, A; Arndt, K; Weber, JM; Boschelli, F

> <Institution>
Wyeth-Ayerst Research

> <Link to Ligand in BindingDB>
http://www.bindingdb.org/bind/chemsearch/marvin/MolStructure.jsp?monomerid=4503

> <Link to Ligand-Target Pair in BindingDB>
http://www.bindingdb.org/jsp/dbsearch/PrimarySearch_ki.jsp?energyterm=kJ/mole&tag=pol&polymerid=13&target=Proto-oncogene+tyrosine-protein+kinase+Src&column=ki&startPg=0&Increment=50&submit=Search

> <Link to Ligand-Target Pair in BindingDB>
http://www.bindingdb.org/jsp/dbsearch/PrimarySearch_ki.jsp?energyterm=kJ/mole&tag=r21&monomerid=4503&enzyme=Proto-oncogene+tyrosine-protein+kinase+Src&column=ki&startPg=0&Increment=50&submit=Search

> <Ligand HET ID in PDB>


> <PDB ID(s) for Ligand-Target Complex>


> <PubChem CID>
5328897

> <PubChem SID>
8034172

> <ChEBI ID of Ligand>


> <ChEMBL ID of Ligand>


> <DrugBank ID of Ligand>


> <IUPHAR_GRAC ID of Ligand>


> <KEGG ID of Ligand>


> <ZINC ID of Ligand>
ZINC13862200

> <Number of Protein Chains in Target (bigger than 1 a multichain complex)>
1

> <BindingDB Target Chain Sequence>
MGSNKSKPKDASQRRRSLEPAENVHGAGGGAFPASQTPSKPASADGHRGPSAAFAPAAAEPKLFGGFNSSDTVTSPQRAGPLAGGVTTFVALYDYESRTETDLSFKKGERLQIVNNTEGDWWLAHSLSTGQTGYIPSNYVAPSDSIQAEEWYFGKITRRESERLLLNAENPRGTFLVRESETTKGAYCLSVSDFDNAKGLNVKHYKIRKLDSGGFYITSRTQFNSLQQLVAYYSKHADGLCHRLTTVCPTSKPQTQGLAKDAWEIPRESLRLEVKLGQGCFGEVWMGTWNGTTRVAIKTLKPGTMSPEAFLQEAQVMKKLRHEKLVQLYAVVSEEPIYIVTEYMSKGSLLDFLKGETGKYLRLPQLVDMAAQIASGMAYVERMNYVHRDLRAANILVGENLVCKVADFGLARLIEDNEYTARQGAKFPIKWTAPEAALYGRFTIKSDVWSFGILLTELTTKGRVPYPGMVNREVLDQVERGYRMPCPPECPESLHDLMCQCWRKEPEERPTFEYLQAFLEDYFTSTEPQYQPGENL

> <PDB ID(s) of Target Chain>
1FMK,1HCS,1HCT,1O41,1O42,1O43,1O44,1O45,1O46,1O47,1O48,1O49,1O4A,1O4B,1O4C,1O4D,1O4E,1O4F,1O4G,1O4H,1O4I,1O4J,1O4K,1O4L,1O4M,1O4N,1O4O,1O4P,1O4Q,1O4R,1SHA,1SHB,1SHD,1SPR,1SPS,1Y57,1YI6,2BDF,2BDJ,2H8H,2PTK,2SRC,4MXO,4MXX,4OML,4OMO,5OB0,5OB1,6ATE,6E6E

> <UniProt (SwissProt) Recommended Name of Target Chain>
Proto-oncogene tyrosine-protein kinase Src

> <UniProt (SwissProt) Entry Name of Target Chain>
SRC_HUMAN

> <UniProt (SwissProt) Primary ID of Target Chain>
P12931

> <UniProt (SwissProt) Secondary ID(s) of Target Chain>
E1P5V4,Q76P87,Q86VB9,Q9H5A8

> <UniProt (SwissProt) Alternative ID(s) of Target Chain>


> <UniProt (TrEMBL) Submitted Name of Target Chain>


> <UniProt (TrEMBL) Entry Name of Target Chain>


> <UniProt (TrEMBL) Primary ID of Target Chain>


> <UniProt (TrEMBL) Secondary ID(s) of Target Chain>


> <UniProt (TrEMBL) Alternative ID(s) of Target Chain>


$$$$
3-quinolinecarbonitrile

Vconf v2.0 Academic SN VC001-00000579
 44 46  0  0  0  0  0  0  0  0999 V2000
   -0.6900    1.5200    0.9260 C   0  0  0  0  0  0  0  0  0  0  0
   -0.6710    0.2610    0.2990 C   0  0  0  0  0  0  0  0  0  0  0
    0.3510   -0.6520    0.6000 C   0  0  0  0  0  0  0  0  0  0  0
    1.3220    0.9350    2.2130 C   0  0  0  0  0  0  0  0  0  0  0
    1.3370   -0.3180    1.5430 C   0  0  0  0  0  0  0  0  0  0  0
    3.3020   -0.9830    2.6890 C   0  0  0  0  0  0  0  0  0  0  0
    2.3130   -1.2150    1.8010 N   0  0  0  0  0  0  0  0  0  0  0
    3.3480    0.2320    3.3940 C   0  0  0  0  0  0  0  0  0  0  0
    4.3200    0.3560    4.2500 C   0  0  0  0  0  0  0  0  0  0  0
    5.1800    0.4620    5.0050 N   0  0  0  0  0  0  0  0  0  0  0
    2.3480    1.2240    3.1560 C   0  0  0  0  0  0  0  0  0  0  0
    2.3070    2.4660    3.7570 N   0  0  0  0  0  0  0  0  0  0  0
    3.2430    3.0330    4.5610 C   0  0  0  0  0  0  0  0  0  0  0
    5.3610    4.1990    4.8880 C   0  0  0  0  0  0  0  0  0  0  0
    4.3520    3.7290    4.0250 C   0  0  0  0  0  0  0  0  0  0  0
    3.1140    2.8950    5.9580 C   0  0  0  0  0  0  0  0  0  0  0
    4.1140    3.3860    6.8120 C   0  0  0  0  0  0  0  0  0  0  0
    5.2570    4.0010    6.2760 C   0  0  0  0  0  0  0  0  0  0  0
    4.5030    4.0120    2.3610 Cl  0  0  0  0  0  0  0  0  0  0  0
    6.5090    4.5020    7.2990 Cl  0  0  0  0  0  0  0  0  0  0  0
    0.2890    1.8450    1.8820 C   0  0  0  0  0  0  0  0  0  0  0
   -1.6580    2.4210    0.6150 O   0  0  0  0  0  0  0  0  0  0  0
   -1.5260    3.1440   -0.6120 C   0  0  0  0  0  0  0  0  0  0  0
   -2.8110    3.9360   -0.8670 C   0  0  0  0  0  0  0  0  0  0  0
   -1.6310   -0.0750   -0.6010 O   0  0  0  0  0  0  0  0  0  0  0
   -2.6280   -1.0150   -0.1930 C   0  0  0  0  0  0  0  0  0  0  0
   -3.5080   -1.3720   -1.3940 C   0  0  0  0  0  0  0  0  0  0  0
    0.3780   -1.5560    0.1310 H   0  0  0  0  0  0  0  0  0  0  0
    4.0090   -1.7110    2.8310 H   0  0  0  0  0  0  0  0  0  0  0
    1.5480    3.0270    3.5420 H   0  0  0  0  0  0  0  0  0  0  0
    6.1800    4.6720    4.5010 H   0  0  0  0  0  0  0  0  0  0  0
    2.3010    2.4160    6.3500 H   0  0  0  0  0  0  0  0  0  0  0
    4.0100    3.2660    7.8210 H   0  0  0  0  0  0  0  0  0  0  0
    0.2410    2.7620    2.3270 H   0  0  0  0  0  0  0  0  0  0  0
   -0.6850    3.8360   -0.5450 H   0  0  0  0  0  0  0  0  0  0  0
   -1.3670    2.4620   -1.4500 H   0  0  0  0  0  0  0  0  0  0  0
   -2.7010    4.5230   -1.7790 H   0  0  0  0  0  0  0  0  0  0  0
   -3.6460    3.2450   -0.9810 H   0  0  0  0  0  0  0  0  0  0  0
   -3.0040    4.6040   -0.0270 H   0  0  0  0  0  0  0  0  0  0  0
   -2.1670   -1.9300    0.1830 H   0  0  0  0  0  0  0  0  0  0  0
   -3.2510   -0.5780    0.5890 H   0  0  0  0  0  0  0  0  0  0  0
   -4.2960   -2.0560   -1.0770 H   0  0  0  0  0  0  0  0  0  0  0
   -3.9580   -0.4670   -1.8030 H   0  0  0  0  0  0  0  0  0  0  0
   -2.9000   -1.8540   -2.1610 H   0  0  0  0  0  0  0  0  0  0  0
  1  2  2  0  0  0  0
  1 21  1  0  0  0  0
  1 22  1  0  0  0  0
  2  3  1  0  0  0  0
  2 25  1  0  0  0  0
  3  5  2  0  0  0  0
  3 28  1  0  0  0  0
  4  5  1  0  0  0  0
  4 11  1  0  0  0  0
  4 21  2  0  0  0  0
  5  7  1  0  0  0  0
  6  7  2  0  0  0  0
  6  8  1  0  0  0  0
  6 29  1  0  0  0  0
  8  9  1  0  0  0  0
  8 11  2  0  0  0  0
  9 10  3  0  0  0  0
 11 12  1  0  0  0  0
 12 13  1  0  0  0  0
 12 30  1  0  0  0  0
 13 15  2  0  0  0  0
 13 16  1  0  0  0  0
 14 15  1  0  0  0  0
 14 18  2  0  0  0  0
 14 31  1  0  0  0  0
 15 19  1  0  0  0  0
 16 17  2  0  0  0  0
 16 32  1  0  0  0  0
 17 18  1  0  0  0  0
 17 33  1  0  0  0  0
 18 20  1  0  0  0  0
 21 34  1  0  0  0  0
 22 23  1  0  0  0  0
 23 24  1  0  0  0  0
 23 35  1  0  0  0  0
 23 36  1  0  0  0  0
 24 37  1  0  0  0  0
 24 38  1  0  0  0  0
 24 39  1  0  0  0  0
 25 26  1  0  0  0  0
 26 27  1  0  0  0  0
 26 40  1  0  0  0  0
 26 41  1  0  0  0  0
 27 42  1  0  0  0  0
 27 43  1  0  0  0  0
 27 44  1  0  0  0  0
M  END
> <From>
www.bindingDB.org

> <BindingDB Reactant_set_id>
6691

> <Ligand InChI>
InChI=1S/C20H17Cl2N3O2/c1-3-26-18-8-14-17(9-19(18)27-4-2)24-11-12(10-23)20(14)25-16-6-5-13(21)7-15(16)22/h5-9,11H,3-4H2,1-2H3,(H,24,25)

> <Ligand InChI Key>
DJZYNWPPCYQNDL-UHFFFAOYSA-N

> <BindingDB MonomerID>
4504

> <BindingDB Ligand Name>
3-quinolinecarbonitrile deriv. 2i::4-[(2,4-Dichlorophenyl)amino]-6,7-diethoxyquinoline-3-carbonitrile

> <Target Name Assigned by Curator or DataSource>
Proto-oncogene tyrosine-protein kinase Src

> <Target Source Organism According to Curator or DataSource>


> <Ki (nM)>


> <IC50 (nM)>
 11

> <Kd (nM)>


> <EC50 (nM)>


> <kon (M-1-s-1)>


> <koff (s-1)>


> <pH>
7.5

> <Temp C>
30.00

> <Curation/DataSource>
Curated from the literature by BindingDB

> <Article DOI>
10.1021/jm000420z

> <PMID>
11262092

> <PubChem AID>


> <Patent Number>


> <Authors>
Boschelli, DH; Wang, YD; Ye, F; Wu, B; Zhang, N; Dutia, M; Powell, DW; Wissner, A; Arndt, K; Weber, JM; Boschelli, F

> <Institution>
Wyeth-Ayerst Research

> <Link to Ligand in BindingDB>
http://www.bindingdb.org/bind/chemsearch/marvin/MolStructure.jsp?monomerid=4504

> <Link to Ligand-Target Pair in BindingDB>
http://www.bindingdb.org/jsp/dbsearch/PrimarySearch_ki.jsp?energyterm=kJ/mole&tag=pol&polymerid=13&target=Proto-oncogene+tyrosine-protein+kinase+Src&column=ki&startPg=0&Increment=50&submit=Search

> <Link to Ligand-Target Pair in BindingDB>
http://www.bindingdb.org/jsp/dbsearch/PrimarySearch_ki.jsp?energyterm=kJ/mole&tag=r21&monomerid=4504&enzyme=Proto-oncogene+tyrosine-protein+kinase+Src&column=ki&startPg=0&Increment=50&submit=Search

> <Ligand HET ID in PDB>


> <PDB ID(s) for Ligand-Target Complex>


> <PubChem CID>
5328898

> <PubChem SID>
8034173

> <ChEBI ID of Ligand>


> <ChEMBL ID of Ligand>


> <DrugBank ID of Ligand>


> <IUPHAR_GRAC ID of Ligand>


> <KEGG ID of Ligand>


> <ZINC ID of Ligand>
ZINC13862202

> <Number of Protein Chains in Target (bigger than 1 a multichain complex)>
1

> <BindingDB Target Chain Sequence>
MGSNKSKPKDASQRRRSLEPAENVHGAGGGAFPASQTPSKPASADGHRGPSAAFAPAAAEPKLFGGFNSSDTVTSPQRAGPLAGGVTTFVALYDYESRTETDLSFKKGERLQIVNNTEGDWWLAHSLSTGQTGYIPSNYVAPSDSIQAEEWYFGKITRRESERLLLNAENPRGTFLVRESETTKGAYCLSVSDFDNAKGLNVKHYKIRKLDSGGFYITSRTQFNSLQQLVAYYSKHADGLCHRLTTVCPTSKPQTQGLAKDAWEIPRESLRLEVKLGQGCFGEVWMGTWNGTTRVAIKTLKPGTMSPEAFLQEAQVMKKLRHEKLVQLYAVVSEEPIYIVTEYMSKGSLLDFLKGETGKYLRLPQLVDMAAQIASGMAYVERMNYVHRDLRAANILVGENLVCKVADFGLARLIEDNEYTARQGAKFPIKWTAPEAALYGRFTIKSDVWSFGILLTELTTKGRVPYPGMVNREVLDQVERGYRMPCPPECPESLHDLMCQCWRKEPEERPTFEYLQAFLEDYFTSTEPQYQPGENL

> <PDB ID(s) of Target Chain>
1FMK,1HCS,1HCT,1O41,1O42,1O43,1O44,1O45,1O46,1O47,1O48,1O49,1O4A,1O4B,1O4C,1O4D,1O4E,1O4F,1O4G,1O4H,1O4I,1O4J,1O4K,1O4L,1O4M,1O4N,1O4O,1O4P,1O4Q,1O4R,1SHA,1SHB,1SHD,1SPR,1SPS,1Y57,1YI6,2BDF,2BDJ,2H8H,2PTK,2SRC,4MXO,4MXX,4OML,4OMO,5OB0,5OB1,6ATE,6E6E

> <UniProt (SwissProt) Recommended Name of Target Chain>
Proto-oncogene tyrosine-protein kinase Src

> <UniProt (SwissProt) Entry Name of Target Chain>
SRC_HUMAN

> <UniProt (SwissProt) Primary ID of Target Chain>
P12931

> <UniProt (SwissProt) Secondary ID(s) of Target Chain>
E1P5V4,Q76P87,Q86VB9,Q9H5A8

> <UniProt (SwissProt) Alternative ID(s) of Target Chain>


> <UniProt (TrEMBL) Submitted Name of Target Chain>


> <UniProt (TrEMBL) Entry Name of Target Chain>


> <UniProt (TrEMBL) Primary ID of Target Chain>


> <UniProt (TrEMBL) Secondary ID(s) of Target Chain>


> <UniProt (TrEMBL) Alternative ID(s) of Target Chain>


$$$$
3-quinolinecarbonitrile

Vconf v2.0 Academic SN VC001-00000579
 56 58  0  0  0  0  0  0  0  0999 V2000
   -0.7020    1.4980    0.9380 C   0  0  0  0  0  0  0  0  0  0  0
   -0.6160    0.2770    0.2410 C   0  0  0  0  0  0  0  0  0  0  0
    0.3910   -0.6440    0.5730 C   0  0  0  0  0  0  0  0  0  0  0
    1.2930    0.9050    2.2490 C   0  0  0  0  0  0  0  0  0  0  0
    1.3300   -0.3410    1.5690 C   0  0  0  0  0  0  0  0  0  0  0
    3.2500   -1.0320    2.7720 C   0  0  0  0  0  0  0  0  0  0  0
    2.2790   -1.2540    1.8620 N   0  0  0  0  0  0  0  0  0  0  0
    3.3220    0.2080    3.4350 C   0  0  0  0  0  0  0  0  0  0  0
    4.3070    0.3540    4.2740 C   0  0  0  0  0  0  0  0  0  0  0
    5.1760    0.4800    5.0140 N   0  0  0  0  0  0  0  0  0  0  0
    2.3330    1.2010    3.1730 C   0  0  0  0  0  0  0  0  0  0  0
    2.3160    2.4610    3.7280 N   0  0  0  0  0  0  0  0  0  0  0
    3.3370    3.0860    4.3710 C   0  0  0  0  0  0  0  0  0  0  0
    4.5510    3.7740    6.3750 C   0  0  0  0  0  0  0  0  0  0  0
    3.4300    3.1600    5.7820 C   0  0  0  0  0  0  0  0  0  0  0
    4.3450    3.6740    3.5790 C   0  0  0  0  0  0  0  0  0  0  0
    5.4390    4.3180    4.1760 C   0  0  0  0  0  0  0  0  0  0  0
    5.5540    4.3580    5.5760 C   0  0  0  0  0  0  0  0  0  0  0
    2.2400    2.4850    6.7840 Cl  0  0  0  0  0  0  0  0  0  0  0
    6.8960    5.0980    6.2890 Cl  0  0  0  0  0  0  0  0  0  0  0
    0.2440    1.8010    1.9360 C   0  0  0  0  0  0  0  0  0  0  0
   -1.6580    2.4170    0.6320 O   0  0  0  0  0  0  0  0  0  0  0
   -1.4940    3.1400   -0.5920 C   0  0  0  0  0  0  0  0  0  0  0
   -1.5160   -0.0040   -0.7410 O   0  0  0  0  0  0  0  0  0  0  0
   -1.0340   -0.3730   -2.0390 C   0  0  0  0  0  0  0  0  0  0  0
   -2.5810    4.2110   -0.7540 C   0  0  0  0  0  0  0  0  0  0  0
   -2.2190   -0.7580   -2.9280 C   0  0  0  0  0  0  0  0  0  0  0
   -3.2020    0.4110   -3.0660 C   0  0  0  0  0  0  0  0  0  0  0
   -4.4350   -0.0370   -3.8580 C   0  0  0  0  0  0  0  0  0  0  0
   -3.9340    3.5790   -1.1130 C   0  0  0  0  0  0  0  0  0  0  0
   -4.9910    4.6710   -1.3180 C   0  0  0  0  0  0  0  0  0  0  0
    0.4450   -1.5360    0.0790 H   0  0  0  0  0  0  0  0  0  0  0
    3.9220   -1.7800    2.9580 H   0  0  0  0  0  0  0  0  0  0  0
    1.5350    3.0070    3.5600 H   0  0  0  0  0  0  0  0  0  0  0
    4.6460    3.7850    7.3940 H   0  0  0  0  0  0  0  0  0  0  0
    4.2870    3.6200    2.5610 H   0  0  0  0  0  0  0  0  0  0  0
    6.1550    4.7390    3.5830 H   0  0  0  0  0  0  0  0  0  0  0
    0.1620    2.6950    2.4180 H   0  0  0  0  0  0  0  0  0  0  0
   -0.5230    3.6400   -0.5880 H   0  0  0  0  0  0  0  0  0  0  0
   -1.5380    2.4590   -1.4440 H   0  0  0  0  0  0  0  0  0  0  0
   -0.4970    0.4670   -2.4850 H   0  0  0  0  0  0  0  0  0  0  0
   -0.3640   -1.2320   -1.9770 H   0  0  0  0  0  0  0  0  0  0  0
   -2.6720    4.7820    0.1700 H   0  0  0  0  0  0  0  0  0  0  0
   -2.2860    4.8830   -1.5590 H   0  0  0  0  0  0  0  0  0  0  0
   -1.8470   -1.0390   -3.9130 H   0  0  0  0  0  0  0  0  0  0  0
   -2.7290   -1.6110   -2.4830 H   0  0  0  0  0  0  0  0  0  0  0
   -3.5190    0.7410   -2.0770 H   0  0  0  0  0  0  0  0  0  0  0
   -2.7170    1.2390   -3.5840 H   0  0  0  0  0  0  0  0  0  0  0
   -5.1150    0.8060   -3.9840 H   0  0  0  0  0  0  0  0  0  0  0
   -4.1300   -0.4050   -4.8390 H   0  0  0  0  0  0  0  0  0  0  0
   -4.9470   -0.8340   -3.3170 H   0  0  0  0  0  0  0  0  0  0  0
   -3.8320    3.0150   -2.0390 H   0  0  0  0  0  0  0  0  0  0  0
   -4.2520    2.9080   -0.3140 H   0  0  0  0  0  0  0  0  0  0  0
   -5.9420    4.2110   -1.5900 H   0  0  0  0  0  0  0  0  0  0  0
   -5.1170    5.2430   -0.3990 H   0  0  0  0  0  0  0  0  0  0  0
   -4.6760    5.3400   -2.1200 H   0  0  0  0  0  0  0  0  0  0  0
  1  2  2  0  0  0  0
  1 21  1  0  0  0  0
  1 22  1  0  0  0  0
  2  3  1  0  0  0  0
  2 24  1  0  0  0  0
  3  5  2  0  0  0  0
  3 32  1  0  0  0  0
  4  5  1  0  0  0  0
  4 11  1  0  0  0  0
  4 21  2  0  0  0  0
  5  7  1  0  0  0  0
  6  7  2  0  0  0  0
  6  8  1  0  0  0  0
  6 33  1  0  0  0  0
  8  9  1  0  0  0  0
  8 11  2  0  0  0  0
  9 10  3  0  0  0  0
 11 12  1  0  0  0  0
 12 13  1  0  0  0  0
 12 34  1  0  0  0  0
 13 15  2  0  0  0  0
 13 16  1  0  0  0  0
 14 15  1  0  0  0  0
 14 18  2  0  0  0  0
 14 35  1  0  0  0  0
 15 19  1  0  0  0  0
 16 17  2  0  0  0  0
 16 36  1  0  0  0  0
 17 18  1  0  0  0  0
 17 37  1  0  0  0  0
 18 20  1  0  0  0  0
 21 38  1  0  0  0  0
 22 23  1  0  0  0  0
 23 26  1  0  0  0  0
 23 39  1  0  0  0  0
 23 40  1  0  0  0  0
 24 25  1  0  0  0  0
 25 27  1  0  0  0  0
 25 41  1  0  0  0  0
 25 42  1  0  0  0  0
 26 30  1  0  0  0  0
 26 43  1  0  0  0  0
 26 44  1  0  0  0  0
 27 28  1  0  0  0  0
 27 45  1  0  0  0  0
 27 46  1  0  0  0  0
 28 29  1  0  0  0  0
 28 47  1  0  0  0  0
 28 48  1  0  0  0  0
 29 49  1  0  0  0  0
 29 50  1  0  0  0  0
 29 51  1  0  0  0  0
 30 31  1  0  0  0  0
 30 52  1  0  0  0  0
 30 53  1  0  0  0  0
 31 54  1  0  0  0  0
 31 55  1  0  0  0  0
 31 56  1  0  0  0  0
M  END
> <From>
www.bindingDB.org

> <BindingDB Reactant_set_id>
6692

> <Ligand InChI>
InChI=1S/C24H25Cl2N3O2/c1-3-5-9-30-22-12-18-21(13-23(22)31-10-6-4-2)28-15-16(14-27)24(18)29-20-8-7-17(25)11-19(20)26/h7-8,11-13,15H,3-6,9-10H2,1-2H3,(H,28,29)

> <Ligand InChI Key>
ULXKBWTVVRXWRA-UHFFFAOYSA-N

> <BindingDB MonomerID>
4505

> <BindingDB Ligand Name>
3-quinolinecarbonitrile deriv. 2j::4-[(2,4-Dichlorophenyl)amino]-6,7-di-n-butoxy-3-quinolinecarbonitrile::6,7-dibutoxy-4-[(2,4-dichlorophenyl)amino]quinoline-3-carbonitrile

> <Target Name Assigned by Curator or DataSource>
Proto-oncogene tyrosine-protein kinase Src

> <Target Source Organism According to Curator or DataSource>


> <Ki (nM)>


> <IC50 (nM)>
 160

> <Kd (nM)>


> <EC50 (nM)>


> <kon (M-1-s-1)>


> <koff (s-1)>


> <pH>
7.5

> <Temp C>
30.00

> <Curation/DataSource>
Curated from the literature by BindingDB

> <Article DOI>
10.1021/jm000420z

> <PMID>
11262092

> <PubChem AID>


> <Patent Number>


> <Authors>
Boschelli, DH; Wang, YD; Ye, F; Wu, B; Zhang, N; Dutia, M; Powell, DW; Wissner, A; Arndt, K; Weber, JM; Boschelli, F

> <Institution>
Wyeth-Ayerst Research

> <Link to Ligand in BindingDB>
http://www.bindingdb.org/bind/chemsearch/marvin/MolStructure.jsp?monomerid=4505

> <Link to Ligand-Target Pair in BindingDB>
http://www.bindingdb.org/jsp/dbsearch/PrimarySearch_ki.jsp?energyterm=kJ/mole&tag=pol&polymerid=13&target=Proto-oncogene+tyrosine-protein+kinase+Src&column=ki&startPg=0&Increment=50&submit=Search

> <Link to Ligand-Target Pair in BindingDB>
http://www.bindingdb.org/jsp/dbsearch/PrimarySearch_ki.jsp?energyterm=kJ/mole&tag=r21&monomerid=4505&enzyme=Proto-oncogene+tyrosine-protein+kinase+Src&column=ki&startPg=0&Increment=50&submit=Search

> <Ligand HET ID in PDB>


> <PDB ID(s) for Ligand-Target Complex>


> <PubChem CID>
5328899

> <PubChem SID>
8034174

> <ChEBI ID of Ligand>


> <ChEMBL ID of Ligand>


> <DrugBank ID of Ligand>


> <IUPHAR_GRAC ID of Ligand>


> <KEGG ID of Ligand>


> <ZINC ID of Ligand>
ZINC13862203

> <Number of Protein Chains in Target (bigger than 1 a multichain complex)>
1

> <BindingDB Target Chain Sequence>
MGSNKSKPKDASQRRRSLEPAENVHGAGGGAFPASQTPSKPASADGHRGPSAAFAPAAAEPKLFGGFNSSDTVTSPQRAGPLAGGVTTFVALYDYESRTETDLSFKKGERLQIVNNTEGDWWLAHSLSTGQTGYIPSNYVAPSDSIQAEEWYFGKITRRESERLLLNAENPRGTFLVRESETTKGAYCLSVSDFDNAKGLNVKHYKIRKLDSGGFYITSRTQFNSLQQLVAYYSKHADGLCHRLTTVCPTSKPQTQGLAKDAWEIPRESLRLEVKLGQGCFGEVWMGTWNGTTRVAIKTLKPGTMSPEAFLQEAQVMKKLRHEKLVQLYAVVSEEPIYIVTEYMSKGSLLDFLKGETGKYLRLPQLVDMAAQIASGMAYVERMNYVHRDLRAANILVGENLVCKVADFGLARLIEDNEYTARQGAKFPIKWTAPEAALYGRFTIKSDVWSFGILLTELTTKGRVPYPGMVNREVLDQVERGYRMPCPPECPESLHDLMCQCWRKEPEERPTFEYLQAFLEDYFTSTEPQYQPGENL

> <PDB ID(s) of Target Chain>
1FMK,1HCS,1HCT,1O41,1O42,1O43,1O44,1O45,1O46,1O47,1O48,1O49,1O4A,1O4B,1O4C,1O4D,1O4E,1O4F,1O4G,1O4H,1O4I,1O4J,1O4K,1O4L,1O4M,1O4N,1O4O,1O4P,1O4Q,1O4R,1SHA,1SHB,1SHD,1SPR,1SPS,1Y57,1YI6,2BDF,2BDJ,2H8H,2PTK,2SRC,4MXO,4MXX,4OML,4OMO,5OB0,5OB1,6ATE,6E6E

> <UniProt (SwissProt) Recommended Name of Target Chain>
Proto-oncogene tyrosine-protein kinase Src

> <UniProt (SwissProt) Entry Name of Target Chain>
SRC_HUMAN

> <UniProt (SwissProt) Primary ID of Target Chain>
P12931

> <UniProt (SwissProt) Secondary ID(s) of Target Chain>
E1P5V4,Q76P87,Q86VB9,Q9H5A8

> <UniProt (SwissProt) Alternative ID(s) of Target Chain>


> <UniProt (TrEMBL) Submitted Name of Target Chain>


> <UniProt (TrEMBL) Entry Name of Target Chain>


> <UniProt (TrEMBL) Primary ID of Target Chain>


> <UniProt (TrEMBL) Secondary ID(s) of Target Chain>


> <UniProt (TrEMBL) Alternative ID(s) of Target Chain>


$$$$
4-Phenylamino-3-quinolinecarbonitrile

Vconf v2.0 Academic SN VC001-00000579
 38 40  0  0  0  0  0  0  0  0999 V2000
   -0.9520    1.8050    1.2760 C   0  0  0  0  0  0  0  0  0  0  0
   -2.0480    1.4830    0.4540 C   0  0  0  0  0  0  0  0  0  0  0
   -2.2560    0.1520    0.0440 C   0  0  0  0  0  0  0  0  0  0  0
   -1.3500   -0.8460    0.4290 C   0  0  0  0  0  0  0  0  0  0  0
   -0.0240    0.8130    1.6760 C   0  0  0  0  0  0  0  0  0  0  0
   -0.2500   -0.5200    1.2370 C   0  0  0  0  0  0  0  0  0  0  0
    1.0840    1.0690    2.5300 C   0  0  0  0  0  0  0  0  0  0  0
    1.6580   -1.3020    2.4010 C   0  0  0  0  0  0  0  0  0  0  0
    1.9510   -0.0140    2.8760 C   0  0  0  0  0  0  0  0  0  0  0
    0.5830   -1.5120    1.6110 N   0  0  0  0  0  0  0  0  0  0  0
    3.0290    0.1000    3.6000 C   0  0  0  0  0  0  0  0  0  0  0
    3.9810    0.2000    4.2390 N   0  0  0  0  0  0  0  0  0  0  0
    1.2120    2.3580    3.0100 N   0  0  0  0  0  0  0  0  0  0  0
    1.9370    2.7490    4.0930 C   0  0  0  0  0  0  0  0  0  0  0
    2.4120    2.6670    6.4880 C   0  0  0  0  0  0  0  0  0  0  0
    1.5740    2.3450    5.4060 C   0  0  0  0  0  0  0  0  0  0  0
    3.0980    3.5240    3.8990 C   0  0  0  0  0  0  0  0  0  0  0
    3.9230    3.8460    4.9900 C   0  0  0  0  0  0  0  0  0  0  0
    3.5860    3.4060    6.2780 C   0  0  0  0  0  0  0  0  0  0  0
    0.1640    1.4580    5.7320 Cl  0  0  0  0  0  0  0  0  0  0  0
   -3.3300   -0.1920   -0.7150 O   0  0  0  0  0  0  0  0  0  0  0
   -4.5600   -0.4450   -0.0320 C   0  0  0  0  0  0  0  0  0  0  0
   -2.8910    2.4730    0.0630 O   0  0  0  0  0  0  0  0  0  0  0
   -2.8050    2.9080   -1.2970 C   0  0  0  0  0  0  0  0  0  0  0
   -0.8420    2.7750    1.5730 H   0  0  0  0  0  0  0  0  0  0  0
   -1.4980   -1.8100    0.1310 H   0  0  0  0  0  0  0  0  0  0  0
    2.2490   -2.0960    2.6480 H   0  0  0  0  0  0  0  0  0  0  0
    0.6640    3.0440    2.6020 H   0  0  0  0  0  0  0  0  0  0  0
    2.1770    2.3640    7.4340 H   0  0  0  0  0  0  0  0  0  0  0
    3.3660    3.8290    2.9610 H   0  0  0  0  0  0  0  0  0  0  0
    4.7720    4.3860    4.8450 H   0  0  0  0  0  0  0  0  0  0  0
    4.1860    3.6310    7.0680 H   0  0  0  0  0  0  0  0  0  0  0
   -5.3070   -0.7550   -0.7610 H   0  0  0  0  0  0  0  0  0  0  0
   -4.4330   -1.2440    0.7020 H   0  0  0  0  0  0  0  0  0  0  0
   -4.9120    0.4580    0.4730 H   0  0  0  0  0  0  0  0  0  0  0
   -3.5520    3.6830   -1.4690 H   0  0  0  0  0  0  0  0  0  0  0
   -1.8150    3.3220   -1.4960 H   0  0  0  0  0  0  0  0  0  0  0
   -2.9960    2.0780   -1.9800 H   0  0  0  0  0  0  0  0  0  0  0
  1  2  1  0  0  0  0
  1  5  2  0  0  0  0
  1 25  1  0  0  0  0
  2  3  2  0  0  0  0
  2 23  1  0  0  0  0
  3  4  1  0  0  0  0
  3 21  1  0  0  0  0
  4  6  2  0  0  0  0
  4 26  1  0  0  0  0
  5  6  1  0  0  0  0
  5  7  1  0  0  0  0
  6 10  1  0  0  0  0
  7  9  2  0  0  0  0
  7 13  1  0  0  0  0
  8  9  1  0  0  0  0
  8 10  2  0  0  0  0
  8 27  1  0  0  0  0
  9 11  1  0  0  0  0
 11 12  3  0  0  0  0
 13 14  1  0  0  0  0
 13 28  1  0  0  0  0
 14 16  2  0  0  0  0
 14 17  1  0  0  0  0
 15 16  1  0  0  0  0
 15 19  2  0  0  0  0
 15 29  1  0  0  0  0
 16 20  1  0  0  0  0
 17 18  2  0  0  0  0
 17 30  1  0  0  0  0
 18 19  1  0  0  0  0
 18 31  1  0  0  0  0
 19 32  1  0  0  0  0
 21 22  1  0  0  0  0
 22 33  1  0  0  0  0
 22 34  1  0  0  0  0
 22 35  1  0  0  0  0
 23 24  1  0  0  0  0
 24 36  1  0  0  0  0
 24 37  1  0  0  0  0
 24 38  1  0  0  0  0
M  END
> <From>
www.bindingDB.org

> <BindingDB Reactant_set_id>
6693

> <Ligand InChI>
InChI=1S/C18H14ClN3O2/c1-23-16-7-12-15(8-17(16)24-2)21-10-11(9-20)18(12)22-14-6-4-3-5-13(14)19/h3-8,10H,1-2H3,(H,21,22)

> <Ligand InChI Key>
WSPKJIHVGRGPGB-UHFFFAOYSA-N

> <BindingDB MonomerID>
4506

> <BindingDB Ligand Name>
4-(2-Chlorophenylamino)-6,7-dimethoxyquinoline-3-carbonitrile::4-Phenylamino-3-quinolinecarbonitrile deriv. 2k::4-[(2-chlorophenyl)amino]-6,7-dimethoxyquinoline-3-carbonitrile

> <Target Name Assigned by Curator or DataSource>
Proto-oncogene tyrosine-protein kinase Src

> <Target Source Organism According to Curator or DataSource>


> <Ki (nM)>


> <IC50 (nM)>
 95

> <Kd (nM)>


> <EC50 (nM)>


> <kon (M-1-s-1)>


> <koff (s-1)>


> <pH>


> <Temp C>


> <Curation/DataSource>
Curated from the literature by BindingDB

> <Article DOI>
10.1021/jm000420z

> <PMID>
11262092

> <PubChem AID>


> <Patent Number>


> <Authors>
Boschelli, DH; Wang, YD; Ye, F; Wu, B; Zhang, N; Dutia, M; Powell, DW; Wissner, A; Arndt, K; Weber, JM; Boschelli, F

> <Institution>
Wyeth-Ayerst Research

> <Link to Ligand in BindingDB>
http://www.bindingdb.org/bind/chemsearch/marvin/MolStructure.jsp?monomerid=4506

> <Link to Ligand-Target Pair in BindingDB>
http://www.bindingdb.org/jsp/dbsearch/PrimarySearch_ki.jsp?energyterm=kJ/mole&tag=pol&polymerid=13&target=Proto-oncogene+tyrosine-protein+kinase+Src&column=ki&startPg=0&Increment=50&submit=Search

> <Link to Ligand-Target Pair in BindingDB>
http://www.bindingdb.org/jsp/dbsearch/PrimarySearch_ki.jsp?energyterm=kJ/mole&tag=r21&monomerid=4506&enzyme=Proto-oncogene+tyrosine-protein+kinase+Src&column=ki&startPg=0&Increment=50&submit=Search

> <Ligand HET ID in PDB>


> <PDB ID(s) for Ligand-Target Complex>


> <PubChem CID>
5328900

> <PubChem SID>
8034175

> <ChEBI ID of Ligand>


> <ChEMBL ID of Ligand>


> <DrugBank ID of Ligand>


> <IUPHAR_GRAC ID of Ligand>


> <KEGG ID of Ligand>


> <ZINC ID of Ligand>
ZINC13862204

> <Number of Protein Chains in Target (bigger than 1 a multichain complex)>
1

> <BindingDB Target Chain Sequence>
MGSNKSKPKDASQRRRSLEPAENVHGAGGGAFPASQTPSKPASADGHRGPSAAFAPAAAEPKLFGGFNSSDTVTSPQRAGPLAGGVTTFVALYDYESRTETDLSFKKGERLQIVNNTEGDWWLAHSLSTGQTGYIPSNYVAPSDSIQAEEWYFGKITRRESERLLLNAENPRGTFLVRESETTKGAYCLSVSDFDNAKGLNVKHYKIRKLDSGGFYITSRTQFNSLQQLVAYYSKHADGLCHRLTTVCPTSKPQTQGLAKDAWEIPRESLRLEVKLGQGCFGEVWMGTWNGTTRVAIKTLKPGTMSPEAFLQEAQVMKKLRHEKLVQLYAVVSEEPIYIVTEYMSKGSLLDFLKGETGKYLRLPQLVDMAAQIASGMAYVERMNYVHRDLRAANILVGENLVCKVADFGLARLIEDNEYTARQGAKFPIKWTAPEAALYGRFTIKSDVWSFGILLTELTTKGRVPYPGMVNREVLDQVERGYRMPCPPECPESLHDLMCQCWRKEPEERPTFEYLQAFLEDYFTSTEPQYQPGENL

> <PDB ID(s) of Target Chain>
1FMK,1HCS,1HCT,1O41,1O42,1O43,1O44,1O45,1O46,1O47,1O48,1O49,1O4A,1O4B,1O4C,1O4D,1O4E,1O4F,1O4G,1O4H,1O4I,1O4J,1O4K,1O4L,1O4M,1O4N,1O4O,1O4P,1O4Q,1O4R,1SHA,1SHB,1SHD,1SPR,1SPS,1Y57,1YI6,2BDF,2BDJ,2H8H,2PTK,2SRC,4MXO,4MXX,4OML,4OMO,5OB0,5OB1,6ATE,6E6E

> <UniProt (SwissProt) Recommended Name of Target Chain>
Proto-oncogene tyrosine-protein kinase Src

> <UniProt (SwissProt) Entry Name of Target Chain>
SRC_HUMAN

> <UniProt (SwissProt) Primary ID of Target Chain>
P12931

> <UniProt (SwissProt) Secondary ID(s) of Target Chain>
E1P5V4,Q76P87,Q86VB9,Q9H5A8

> <UniProt (SwissProt) Alternative ID(s) of Target Chain>


> <UniProt (TrEMBL) Submitted Name of Target Chain>


> <UniProt (TrEMBL) Entry Name of Target Chain>


> <UniProt (TrEMBL) Primary ID of Target Chain>


> <UniProt (TrEMBL) Secondary ID(s) of Target Chain>


> <UniProt (TrEMBL) Alternative ID(s) of Target Chain>


$$$$
4-Phenylamino-3-quinolinecarbonitrile

Vconf v2.0 Academic SN VC001-00000579
 38 40  0  0  0  0  0  0  0  0999 V2000
   -0.8800    1.7790    1.2200 C   0  0  0  0  0  0  0  0  0  0  0
   -1.9860    1.4840    0.4030 C   0  0  0  0  0  0  0  0  0  0  0
   -2.2330    0.1540    0.0150 C   0  0  0  0  0  0  0  0  0  0  0
   -1.3540   -0.8670    0.4100 C   0  0  0  0  0  0  0  0  0  0  0
    0.0010    0.7640    1.6620 C   0  0  0  0  0  0  0  0  0  0  0
   -0.2440   -0.5630    1.2160 C   0  0  0  0  0  0  0  0  0  0  0
    1.0850    1.0010    2.5510 C   0  0  0  0  0  0  0  0  0  0  0
    1.6650   -1.3660    2.3700 C   0  0  0  0  0  0  0  0  0  0  0
    1.9470   -0.0840    2.8780 C   0  0  0  0  0  0  0  0  0  0  0
    0.5870   -1.5630    1.5810 N   0  0  0  0  0  0  0  0  0  0  0
    3.0240    0.0280    3.6040 C   0  0  0  0  0  0  0  0  0  0  0
    3.9740    0.1150    4.2430 N   0  0  0  0  0  0  0  0  0  0  0
    1.1910    2.2770    3.0670 N   0  0  0  0  0  0  0  0  0  0  0
    1.8970    2.6710    4.1540 C   0  0  0  0  0  0  0  0  0  0  0
    3.8660    3.6960    5.1630 C   0  0  0  0  0  0  0  0  0  0  0
    3.1210    3.3510    4.0200 C   0  0  0  0  0  0  0  0  0  0  0
    1.3900    2.3990    5.4410 C   0  0  0  0  0  0  0  0  0  0  0
    2.1310    2.7440    6.5820 C   0  0  0  0  0  0  0  0  0  0  0
    3.3830    3.3730    6.4460 C   0  0  0  0  0  0  0  0  0  0  0
   -3.3180   -0.1630   -0.7370 O   0  0  0  0  0  0  0  0  0  0  0
   -4.5280   -0.4850   -0.0510 C   0  0  0  0  0  0  0  0  0  0  0
   -2.8230    2.4960    0.0490 O   0  0  0  0  0  0  0  0  0  0  0
   -2.8900    2.8940   -1.3220 C   0  0  0  0  0  0  0  0  0  0  0
    4.3200    3.7000    7.8160 Cl  0  0  0  0  0  0  0  0  0  0  0
   -0.7260    2.7510    1.4870 H   0  0  0  0  0  0  0  0  0  0  0
   -1.5350   -1.8310    0.1230 H   0  0  0  0  0  0  0  0  0  0  0
    2.2590   -2.1710    2.5880 H   0  0  0  0  0  0  0  0  0  0  0
    0.6080    2.9490    2.6880 H   0  0  0  0  0  0  0  0  0  0  0
    4.7680    4.1610    5.0460 H   0  0  0  0  0  0  0  0  0  0  0
    3.4930    3.5660    3.0950 H   0  0  0  0  0  0  0  0  0  0  0
    0.4930    1.9240    5.5500 H   0  0  0  0  0  0  0  0  0  0  0
    1.7580    2.5120    7.5050 H   0  0  0  0  0  0  0  0  0  0  0
   -5.2830   -0.7500   -0.7910 H   0  0  0  0  0  0  0  0  0  0  0
   -4.3760   -1.3330    0.6200 H   0  0  0  0  0  0  0  0  0  0  0
   -4.8810    0.3740    0.5240 H   0  0  0  0  0  0  0  0  0  0  0
   -3.6240    3.6930   -1.4210 H   0  0  0  0  0  0  0  0  0  0  0
   -1.9170    3.2660   -1.6490 H   0  0  0  0  0  0  0  0  0  0  0
   -3.1930    2.0600   -1.9570 H   0  0  0  0  0  0  0  0  0  0  0
  1  2  1  0  0  0  0
  1  5  2  0  0  0  0
  1 25  1  0  0  0  0
  2  3  2  0  0  0  0
  2 22  1  0  0  0  0
  3  4  1  0  0  0  0
  3 20  1  0  0  0  0
  4  6  2  0  0  0  0
  4 26  1  0  0  0  0
  5  6  1  0  0  0  0
  5  7  1  0  0  0  0
  6 10  1  0  0  0  0
  7  9  2  0  0  0  0
  7 13  1  0  0  0  0
  8  9  1  0  0  0  0
  8 10  2  0  0  0  0
  8 27  1  0  0  0  0
  9 11  1  0  0  0  0
 11 12  3  0  0  0  0
 13 14  1  0  0  0  0
 13 28  1  0  0  0  0
 14 16  2  0  0  0  0
 14 17  1  0  0  0  0
 15 16  1  0  0  0  0
 15 19  2  0  0  0  0
 15 29  1  0  0  0  0
 16 30  1  0  0  0  0
 17 18  2  0  0  0  0
 17 31  1  0  0  0  0
 18 19  1  0  0  0  0
 18 32  1  0  0  0  0
 19 24  1  0  0  0  0
 20 21  1  0  0  0  0
 21 33  1  0  0  0  0
 21 34  1  0  0  0  0
 21 35  1  0  0  0  0
 22 23  1  0  0  0  0
 23 36  1  0  0  0  0
 23 37  1  0  0  0  0
 23 38  1  0  0  0  0
M  END
> <From>
www.bindingDB.org

> <BindingDB Reactant_set_id>
6694

> <Ligand InChI>
InChI=1S/C18H14ClN3O2/c1-23-16-7-14-15(8-17(16)24-2)21-10-11(9-20)18(14)22-13-5-3-12(19)4-6-13/h3-8,10H,1-2H3,(H,21,22)

> <Ligand InChI Key>
ZPXZLYUKUKMOAS-UHFFFAOYSA-N

> <BindingDB MonomerID>
4507

> <BindingDB Ligand Name>
4-Phenylamino-3-quinolinecarbonitrile deriv. 2l::4-[(4-Chlorophenyl)amino]-6,7-dimethoxy-3-quinolinecarbonitrile::4-[(4-chlorophenyl)amino]-6,7-dimethoxyquinoline-3-carbonitrile

> <Target Name Assigned by Curator or DataSource>
Proto-oncogene tyrosine-protein kinase Src

> <Target Source Organism According to Curator or DataSource>


> <Ki (nM)>


> <IC50 (nM)>
 53

> <Kd (nM)>


> <EC50 (nM)>


> <kon (M-1-s-1)>


> <koff (s-1)>


> <pH>


> <Temp C>


> <Curation/DataSource>
Curated from the literature by BindingDB

> <Article DOI>
10.1021/jm000420z

> <PMID>
11262092

> <PubChem AID>


> <Patent Number>


> <Authors>
Boschelli, DH; Wang, YD; Ye, F; Wu, B; Zhang, N; Dutia, M; Powell, DW; Wissner, A; Arndt, K; Weber, JM; Boschelli, F

> <Institution>
Wyeth-Ayerst Research

> <Link to Ligand in BindingDB>
http://www.bindingdb.org/bind/chemsearch/marvin/MolStructure.jsp?monomerid=4507

> <Link to Ligand-Target Pair in BindingDB>
http://www.bindingdb.org/jsp/dbsearch/PrimarySearch_ki.jsp?energyterm=kJ/mole&tag=pol&polymerid=13&target=Proto-oncogene+tyrosine-protein+kinase+Src&column=ki&startPg=0&Increment=50&submit=Search

> <Link to Ligand-Target Pair in BindingDB>
http://www.bindingdb.org/jsp/dbsearch/PrimarySearch_ki.jsp?energyterm=kJ/mole&tag=r21&monomerid=4507&enzyme=Proto-oncogene+tyrosine-protein+kinase+Src&column=ki&startPg=0&Increment=50&submit=Search

> <Ligand HET ID in PDB>


> <PDB ID(s) for Ligand-Target Complex>


> <PubChem CID>
5328901

> <PubChem SID>
8034176

> <ChEBI ID of Ligand>


> <ChEMBL ID of Ligand>


> <DrugBank ID of Ligand>


> <IUPHAR_GRAC ID of Ligand>


> <KEGG ID of Ligand>


> <ZINC ID of Ligand>
ZINC13862205

> <Number of Protein Chains in Target (bigger than 1 a multichain complex)>
1

> <BindingDB Target Chain Sequence>
MGSNKSKPKDASQRRRSLEPAENVHGAGGGAFPASQTPSKPASADGHRGPSAAFAPAAAEPKLFGGFNSSDTVTSPQRAGPLAGGVTTFVALYDYESRTETDLSFKKGERLQIVNNTEGDWWLAHSLSTGQTGYIPSNYVAPSDSIQAEEWYFGKITRRESERLLLNAENPRGTFLVRESETTKGAYCLSVSDFDNAKGLNVKHYKIRKLDSGGFYITSRTQFNSLQQLVAYYSKHADGLCHRLTTVCPTSKPQTQGLAKDAWEIPRESLRLEVKLGQGCFGEVWMGTWNGTTRVAIKTLKPGTMSPEAFLQEAQVMKKLRHEKLVQLYAVVSEEPIYIVTEYMSKGSLLDFLKGETGKYLRLPQLVDMAAQIASGMAYVERMNYVHRDLRAANILVGENLVCKVADFGLARLIEDNEYTARQGAKFPIKWTAPEAALYGRFTIKSDVWSFGILLTELTTKGRVPYPGMVNREVLDQVERGYRMPCPPECPESLHDLMCQCWRKEPEERPTFEYLQAFLEDYFTSTEPQYQPGENL

> <PDB ID(s) of Target Chain>
1FMK,1HCS,1HCT,1O41,1O42,1O43,1O44,1O45,1O46,1O47,1O48,1O49,1O4A,1O4B,1O4C,1O4D,1O4E,1O4F,1O4G,1O4H,1O4I,1O4J,1O4K,1O4L,1O4M,1O4N,1O4O,1O4P,1O4Q,1O4R,1SHA,1SHB,1SHD,1SPR,1SPS,1Y57,1YI6,2BDF,2BDJ,2H8H,2PTK,2SRC,4MXO,4MXX,4OML,4OMO,5OB0,5OB1,6ATE,6E6E

> <UniProt (SwissProt) Recommended Name of Target Chain>
Proto-oncogene tyrosine-protein kinase Src

> <UniProt (SwissProt) Entry Name of Target Chain>
SRC_HUMAN

> <UniProt (SwissProt) Primary ID of Target Chain>
P12931

> <UniProt (SwissProt) Secondary ID(s) of Target Chain>
E1P5V4,Q76P87,Q86VB9,Q9H5A8

> <UniProt (SwissProt) Alternative ID(s) of Target Chain>


> <UniProt (TrEMBL) Submitted Name of Target Chain>


> <UniProt (TrEMBL) Entry Name of Target Chain>


> <UniProt (TrEMBL) Primary ID of Target Chain>


> <UniProt (TrEMBL) Secondary ID(s) of Target Chain>


> <UniProt (TrEMBL) Alternative ID(s) of Target Chain>


$$$$
4-Phenylamino-3-quinolinecarbonitrile

Vconf v2.0 Academic SN VC001-00000579
 38 40  0  0  0  0  0  0  0  0999 V2000
   -0.9340    1.7850    1.2970 C   0  0  0  0  0  0  0  0  0  0  0
   -2.0280    1.4870    0.4650 C   0  0  0  0  0  0  0  0  0  0  0
   -2.2570    0.1600    0.0510 C   0  0  0  0  0  0  0  0  0  0  0
   -1.3620   -0.8510    0.4320 C   0  0  0  0  0  0  0  0  0  0  0
   -0.0270    0.7770    1.7090 C   0  0  0  0  0  0  0  0  0  0  0
   -0.2620   -0.5480    1.2510 C   0  0  0  0  0  0  0  0  0  0  0
    1.0880    1.0220    2.5600 C   0  0  0  0  0  0  0  0  0  0  0
    1.6570   -1.3550    2.3830 C   0  0  0  0  0  0  0  0  0  0  0
    1.9500   -0.0700    2.8800 C   0  0  0  0  0  0  0  0  0  0  0
    0.5730   -1.5490    1.6040 N   0  0  0  0  0  0  0  0  0  0  0
    3.0180    0.0170    3.6210 C   0  0  0  0  0  0  0  0  0  0  0
    3.9630    0.0750    4.2710 N   0  0  0  0  0  0  0  0  0  0  0
    1.2310    2.3100    3.0340 N   0  0  0  0  0  0  0  0  0  0  0
    2.1260    2.7590    3.9520 C   0  0  0  0  0  0  0  0  0  0  0
    2.9240    2.9720    6.2560 C   0  0  0  0  0  0  0  0  0  0  0
    1.8950    2.6210    5.3450 C   0  0  0  0  0  0  0  0  0  0  0
    3.3240    3.3350    3.4870 C   0  0  0  0  0  0  0  0  0  0  0
    4.3300    3.7000    4.3960 C   0  0  0  0  0  0  0  0  0  0  0
    4.1350    3.5010    5.7710 C   0  0  0  0  0  0  0  0  0  0  0
   -3.3290   -0.1740   -0.7150 O   0  0  0  0  0  0  0  0  0  0  0
   -4.6040   -0.2680   -0.0750 C   0  0  0  0  0  0  0  0  0  0  0
   -2.8520    2.4980    0.0800 O   0  0  0  0  0  0  0  0  0  0  0
   -2.8370    2.9010   -1.2930 C   0  0  0  0  0  0  0  0  0  0  0
    0.3980    2.0130    5.8830 Cl  0  0  0  0  0  0  0  0  0  0  0
    2.7990    2.8000    7.9420 Cl  0  0  0  0  0  0  0  0  0  0  0
   -0.8070    2.7550    1.5900 H   0  0  0  0  0  0  0  0  0  0  0
   -1.5220   -1.8100    0.1210 H   0  0  0  0  0  0  0  0  0  0  0
    2.2500   -2.1600    2.6010 H   0  0  0  0  0  0  0  0  0  0  0
    0.5910    2.9660    2.7260 H   0  0  0  0  0  0  0  0  0  0  0
    3.4810    3.4510    2.4840 H   0  0  0  0  0  0  0  0  0  0  0
    5.2120    4.0920    4.0620 H   0  0  0  0  0  0  0  0  0  0  0
    4.8780    3.7590    6.4230 H   0  0  0  0  0  0  0  0  0  0  0
   -5.3440   -0.5860   -0.8080 H   0  0  0  0  0  0  0  0  0  0  0
   -4.5700   -1.0040    0.7310 H   0  0  0  0  0  0  0  0  0  0  0
   -4.9030    0.7000    0.3310 H   0  0  0  0  0  0  0  0  0  0  0
   -3.5780    3.6860   -1.4370 H   0  0  0  0  0  0  0  0  0  0  0
   -1.8540    3.2910   -1.5620 H   0  0  0  0  0  0  0  0  0  0  0
   -3.0840    2.0640   -1.9470 H   0  0  0  0  0  0  0  0  0  0  0
  1  2  1  0  0  0  0
  1  5  2  0  0  0  0
  1 26  1  0  0  0  0
  2  3  2  0  0  0  0
  2 22  1  0  0  0  0
  3  4  1  0  0  0  0
  3 20  1  0  0  0  0
  4  6  2  0  0  0  0
  4 27  1  0  0  0  0
  5  6  1  0  0  0  0
  5  7  1  0  0  0  0
  6 10  1  0  0  0  0
  7  9  2  0  0  0  0
  7 13  1  0  0  0  0
  8  9  1  0  0  0  0
  8 10  2  0  0  0  0
  8 28  1  0  0  0  0
  9 11  1  0  0  0  0
 11 12  3  0  0  0  0
 13 14  1  0  0  0  0
 13 29  1  0  0  0  0
 14 16  2  0  0  0  0
 14 17  1  0  0  0  0
 15 16  1  0  0  0  0
 15 19  2  0  0  0  0
 15 25  1  0  0  0  0
 16 24  1  0  0  0  0
 17 18  2  0  0  0  0
 17 30  1  0  0  0  0
 18 19  1  0  0  0  0
 18 31  1  0  0  0  0
 19 32  1  0  0  0  0
 20 21  1  0  0  0  0
 21 33  1  0  0  0  0
 21 34  1  0  0  0  0
 21 35  1  0  0  0  0
 22 23  1  0  0  0  0
 23 36  1  0  0  0  0
 23 37  1  0  0  0  0
 23 38  1  0  0  0  0
M  END
> <From>
www.bindingDB.org

> <BindingDB Reactant_set_id>
6695

> <Ligand InChI>
InChI=1S/C18H13Cl2N3O2/c1-24-15-6-11-14(7-16(15)25-2)22-9-10(8-21)18(11)23-13-5-3-4-12(19)17(13)20/h3-7,9H,1-2H3,(H,22,23)

> <Ligand InChI Key>
CWQROCDITVQWTH-UHFFFAOYSA-N

> <BindingDB MonomerID>
4508

> <BindingDB Ligand Name>
4-Phenylamino-3-quinolinecarbonitrile deriv. 2m::4-[(2,3-Dichlorophenyl)amino]-6,7-dimethoxy-3-quinolinecarbonitrile::4-[(2,3-dichlorophenyl)amino]-6,7-dimethoxyquinoline-3-carbonitrile

> <Target Name Assigned by Curator or DataSource>
Proto-oncogene tyrosine-protein kinase Src

> <Target Source Organism According to Curator or DataSource>


> <Ki (nM)>


> <IC50 (nM)>
 90

> <Kd (nM)>


> <EC50 (nM)>


> <kon (M-1-s-1)>


> <koff (s-1)>


> <pH>


> <Temp C>


> <Curation/DataSource>
Curated from the literature by BindingDB

> <Article DOI>
10.1021/jm000420z

> <PMID>
11262092

> <PubChem AID>


> <Patent Number>


> <Authors>
Boschelli, DH; Wang, YD; Ye, F; Wu, B; Zhang, N; Dutia, M; Powell, DW; Wissner, A; Arndt, K; Weber, JM; Boschelli, F

> <Institution>
Wyeth-Ayerst Research

> <Link to Ligand in BindingDB>
http://www.bindingdb.org/bind/chemsearch/marvin/MolStructure.jsp?monomerid=4508

> <Link to Ligand-Target Pair in BindingDB>
http://www.bindingdb.org/jsp/dbsearch/PrimarySearch_ki.jsp?energyterm=kJ/mole&tag=pol&polymerid=13&target=Proto-oncogene+tyrosine-protein+kinase+Src&column=ki&startPg=0&Increment=50&submit=Search

> <Link to Ligand-Target Pair in BindingDB>
http://www.bindingdb.org/jsp/dbsearch/PrimarySearch_ki.jsp?energyterm=kJ/mole&tag=r21&monomerid=4508&enzyme=Proto-oncogene+tyrosine-protein+kinase+Src&column=ki&startPg=0&Increment=50&submit=Search

> <Ligand HET ID in PDB>


> <PDB ID(s) for Ligand-Target Complex>


> <PubChem CID>
5328902

> <PubChem SID>
8034177

> <ChEBI ID of Ligand>


> <ChEMBL ID of Ligand>


> <DrugBank ID of Ligand>


> <IUPHAR_GRAC ID of Ligand>


> <KEGG ID of Ligand>


> <ZINC ID of Ligand>
ZINC13862206

> <Number of Protein Chains in Target (bigger than 1 a multichain complex)>
1

> <BindingDB Target Chain Sequence>
MGSNKSKPKDASQRRRSLEPAENVHGAGGGAFPASQTPSKPASADGHRGPSAAFAPAAAEPKLFGGFNSSDTVTSPQRAGPLAGGVTTFVALYDYESRTETDLSFKKGERLQIVNNTEGDWWLAHSLSTGQTGYIPSNYVAPSDSIQAEEWYFGKITRRESERLLLNAENPRGTFLVRESETTKGAYCLSVSDFDNAKGLNVKHYKIRKLDSGGFYITSRTQFNSLQQLVAYYSKHADGLCHRLTTVCPTSKPQTQGLAKDAWEIPRESLRLEVKLGQGCFGEVWMGTWNGTTRVAIKTLKPGTMSPEAFLQEAQVMKKLRHEKLVQLYAVVSEEPIYIVTEYMSKGSLLDFLKGETGKYLRLPQLVDMAAQIASGMAYVERMNYVHRDLRAANILVGENLVCKVADFGLARLIEDNEYTARQGAKFPIKWTAPEAALYGRFTIKSDVWSFGILLTELTTKGRVPYPGMVNREVLDQVERGYRMPCPPECPESLHDLMCQCWRKEPEERPTFEYLQAFLEDYFTSTEPQYQPGENL

> <PDB ID(s) of Target Chain>
1FMK,1HCS,1HCT,1O41,1O42,1O43,1O44,1O45,1O46,1O47,1O48,1O49,1O4A,1O4B,1O4C,1O4D,1O4E,1O4F,1O4G,1O4H,1O4I,1O4J,1O4K,1O4L,1O4M,1O4N,1O4O,1O4P,1O4Q,1O4R,1SHA,1SHB,1SHD,1SPR,1SPS,1Y57,1YI6,2BDF,2BDJ,2H8H,2PTK,2SRC,4MXO,4MXX,4OML,4OMO,5OB0,5OB1,6ATE,6E6E

> <UniProt (SwissProt) Recommended Name of Target Chain>
Proto-oncogene tyrosine-protein kinase Src

> <UniProt (SwissProt) Entry Name of Target Chain>
SRC_HUMAN

> <UniProt (SwissProt) Primary ID of Target Chain>
P12931

> <UniProt (SwissProt) Secondary ID(s) of Target Chain>
E1P5V4,Q76P87,Q86VB9,Q9H5A8

> <UniProt (SwissProt) Alternative ID(s) of Target Chain>


> <UniProt (TrEMBL) Submitted Name of Target Chain>


> <UniProt (TrEMBL) Entry Name of Target Chain>


> <UniProt (TrEMBL) Primary ID of Target Chain>


> <UniProt (TrEMBL) Secondary ID(s) of Target Chain>


> <UniProt (TrEMBL) Alternative ID(s) of Target Chain>


$$$$
4-Phenylamino-3-quinolinecarbonitrile

Vconf v2.0 Academic SN VC001-00000579
 38 40  0  0  0  0  0  0  0  0999 V2000
   -0.8390    1.7910    1.2390 C   0  0  0  0  0  0  0  0  0  0  0
   -1.9630    1.5230    0.4390 C   0  0  0  0  0  0  0  0  0  0  0
   -2.2410    0.2030    0.0410 C   0  0  0  0  0  0  0  0  0  0  0
   -1.3760   -0.8360    0.4180 C   0  0  0  0  0  0  0  0  0  0  0
    0.0220    0.7530    1.6640 C   0  0  0  0  0  0  0  0  0  0  0
   -0.2510   -0.5660    1.2150 C   0  0  0  0  0  0  0  0  0  0  0
    1.1170    0.9660    2.5440 C   0  0  0  0  0  0  0  0  0  0  0
    1.6600   -1.4110    2.3340 C   0  0  0  0  0  0  0  0  0  0  0
    1.9680   -0.1370    2.8470 C   0  0  0  0  0  0  0  0  0  0  0
    0.5650   -1.5840    1.5620 N   0  0  0  0  0  0  0  0  0  0  0
    3.0500   -0.0510    3.5660 C   0  0  0  0  0  0  0  0  0  0  0
    4.0050    0.0210    4.2010 N   0  0  0  0  0  0  0  0  0  0  0
    1.2420    2.2360    3.0640 N   0  0  0  0  0  0  0  0  0  0  0
    2.0320    2.6390    4.0920 C   0  0  0  0  0  0  0  0  0  0  0
    4.0540    3.6530    5.0010 C   0  0  0  0  0  0  0  0  0  0  0
    3.2580    3.3090    3.8900 C   0  0  0  0  0  0  0  0  0  0  0
    1.5870    2.3870    5.4040 C   0  0  0  0  0  0  0  0  0  0  0
    2.3720    2.7520    6.5120 C   0  0  0  0  0  0  0  0  0  0  0
    3.6180    3.3670    6.3060 C   0  0  0  0  0  0  0  0  0  0  0
   -3.3330   -0.0670   -0.7190 O   0  0  0  0  0  0  0  0  0  0  0
   -4.5000   -0.5600   -0.0580 C   0  0  0  0  0  0  0  0  0  0  0
   -2.8030    2.5380    0.1040 O   0  0  0  0  0  0  0  0  0  0  0
   -2.6540    3.1410   -1.1810 C   0  0  0  0  0  0  0  0  0  0  0
    3.8040    3.6970    2.3340 Cl  0  0  0  0  0  0  0  0  0  0  0
    1.8160    2.4540    8.0810 Cl  0  0  0  0  0  0  0  0  0  0  0
   -0.6670    2.7560    1.5180 H   0  0  0  0  0  0  0  0  0  0  0
   -1.5730   -1.7920    0.1180 H   0  0  0  0  0  0  0  0  0  0  0
    2.2470   -2.2230    2.5400 H   0  0  0  0  0  0  0  0  0  0  0
    0.6450    2.9150    2.7110 H   0  0  0  0  0  0  0  0  0  0  0
    4.9610    4.1010    4.8690 H   0  0  0  0  0  0  0  0  0  0  0
    0.6850    1.9310    5.5450 H   0  0  0  0  0  0  0  0  0  0  0
    4.2150    3.5970    7.1000 H   0  0  0  0  0  0  0  0  0  0  0
   -5.2590   -0.7890   -0.8050 H   0  0  0  0  0  0  0  0  0  0  0
   -4.2680   -1.4690    0.5000 H   0  0  0  0  0  0  0  0  0  0  0
   -4.8920    0.1960    0.6250 H   0  0  0  0  0  0  0  0  0  0  0
   -3.4460    3.8780   -1.3140 H   0  0  0  0  0  0  0  0  0  0  0
   -1.6880    3.6440   -1.2510 H   0  0  0  0  0  0  0  0  0  0  0
   -2.7330    2.3920   -1.9720 H   0  0  0  0  0  0  0  0  0  0  0
  1  2  1  0  0  0  0
  1  5  2  0  0  0  0
  1 26  1  0  0  0  0
  2  3  2  0  0  0  0
  2 22  1  0  0  0  0
  3  4  1  0  0  0  0
  3 20  1  0  0  0  0
  4  6  2  0  0  0  0
  4 27  1  0  0  0  0
  5  6  1  0  0  0  0
  5  7  1  0  0  0  0
  6 10  1  0  0  0  0
  7  9  2  0  0  0  0
  7 13  1  0  0  0  0
  8  9  1  0  0  0  0
  8 10  2  0  0  0  0
  8 28  1  0  0  0  0
  9 11  1  0  0  0  0
 11 12  3  0  0  0  0
 13 14  1  0  0  0  0
 13 29  1  0  0  0  0
 14 16  2  0  0  0  0
 14 17  1  0  0  0  0
 15 16  1  0  0  0  0
 15 19  2  0  0  0  0
 15 30  1  0  0  0  0
 16 24  1  0  0  0  0
 17 18  2  0  0  0  0
 17 31  1  0  0  0  0
 18 19  1  0  0  0  0
 18 25  1  0  0  0  0
 19 32  1  0  0  0  0
 20 21  1  0  0  0  0
 21 33  1  0  0  0  0
 21 34  1  0  0  0  0
 21 35  1  0  0  0  0
 22 23  1  0  0  0  0
 23 36  1  0  0  0  0
 23 37  1  0  0  0  0
 23 38  1  0  0  0  0
M  END
> <From>
www.bindingDB.org

> <BindingDB Reactant_set_id>
6696

> <Ligand InChI>
InChI=1S/C18H13Cl2N3O2/c1-24-16-6-12-14(7-17(16)25-2)22-9-10(8-21)18(12)23-15-5-11(19)3-4-13(15)20/h3-7,9H,1-2H3,(H,22,23)

> <Ligand InChI Key>
YCWWUYIHVFYWMP-UHFFFAOYSA-N

> <BindingDB MonomerID>
4509

> <BindingDB Ligand Name>
4-Phenylamino-3-quinolinecarbonitrile deriv. 2n::4-[(2,5-Dichlorophenyl)amino]-6,7-dimethoxy-3-quinolinecarbonitrile::4-[(2,5-dichlorophenyl)amino]-6,7-dimethoxyquinoline-3-carbonitrile

> <Target Name Assigned by Curator or DataSource>
Proto-oncogene tyrosine-protein kinase Src

> <Target Source Organism According to Curator or DataSource>


> <Ki (nM)>


> <IC50 (nM)>
 40

> <Kd (nM)>


> <EC50 (nM)>


> <kon (M-1-s-1)>


> <koff (s-1)>


> <pH>


> <Temp C>


> <Curation/DataSource>
Curated from the literature by BindingDB

> <Article DOI>
10.1021/jm000420z

> <PMID>
11262092

> <PubChem AID>


> <Patent Number>


> <Authors>
Boschelli, DH; Wang, YD; Ye, F; Wu, B; Zhang, N; Dutia, M; Powell, DW; Wissner, A; Arndt, K; Weber, JM; Boschelli, F

> <Institution>
Wyeth-Ayerst Research

> <Link to Ligand in BindingDB>
http://www.bindingdb.org/bind/chemsearch/marvin/MolStructure.jsp?monomerid=4509

> <Link to Ligand-Target Pair in BindingDB>
http://www.bindingdb.org/jsp/dbsearch/PrimarySearch_ki.jsp?energyterm=kJ/mole&tag=pol&polymerid=13&target=Proto-oncogene+tyrosine-protein+kinase+Src&column=ki&startPg=0&Increment=50&submit=Search

> <Link to Ligand-Target Pair in BindingDB>
http://www.bindingdb.org/jsp/dbsearch/PrimarySearch_ki.jsp?energyterm=kJ/mole&tag=r21&monomerid=4509&enzyme=Proto-oncogene+tyrosine-protein+kinase+Src&column=ki&startPg=0&Increment=50&submit=Search

> <Ligand HET ID in PDB>


> <PDB ID(s) for Ligand-Target Complex>


> <PubChem CID>
5328903

> <PubChem SID>
8034178

> <ChEBI ID of Ligand>


> <ChEMBL ID of Ligand>


> <DrugBank ID of Ligand>


> <IUPHAR_GRAC ID of Ligand>


> <KEGG ID of Ligand>


> <ZINC ID of Ligand>
ZINC13862207

> <Number of Protein Chains in Target (bigger than 1 a multichain complex)>
1

> <BindingDB Target Chain Sequence>
MGSNKSKPKDASQRRRSLEPAENVHGAGGGAFPASQTPSKPASADGHRGPSAAFAPAAAEPKLFGGFNSSDTVTSPQRAGPLAGGVTTFVALYDYESRTETDLSFKKGERLQIVNNTEGDWWLAHSLSTGQTGYIPSNYVAPSDSIQAEEWYFGKITRRESERLLLNAENPRGTFLVRESETTKGAYCLSVSDFDNAKGLNVKHYKIRKLDSGGFYITSRTQFNSLQQLVAYYSKHADGLCHRLTTVCPTSKPQTQGLAKDAWEIPRESLRLEVKLGQGCFGEVWMGTWNGTTRVAIKTLKPGTMSPEAFLQEAQVMKKLRHEKLVQLYAVVSEEPIYIVTEYMSKGSLLDFLKGETGKYLRLPQLVDMAAQIASGMAYVERMNYVHRDLRAANILVGENLVCKVADFGLARLIEDNEYTARQGAKFPIKWTAPEAALYGRFTIKSDVWSFGILLTELTTKGRVPYPGMVNREVLDQVERGYRMPCPPECPESLHDLMCQCWRKEPEERPTFEYLQAFLEDYFTSTEPQYQPGENL

> <PDB ID(s) of Target Chain>
1FMK,1HCS,1HCT,1O41,1O42,1O43,1O44,1O45,1O46,1O47,1O48,1O49,1O4A,1O4B,1O4C,1O4D,1O4E,1O4F,1O4G,1O4H,1O4I,1O4J,1O4K,1O4L,1O4M,1O4N,1O4O,1O4P,1O4Q,1O4R,1SHA,1SHB,1SHD,1SPR,1SPS,1Y57,1YI6,2BDF,2BDJ,2H8H,2PTK,2SRC,4MXO,4MXX,4OML,4OMO,5OB0,5OB1,6ATE,6E6E

> <UniProt (SwissProt) Recommended Name of Target Chain>
Proto-oncogene tyrosine-protein kinase Src

> <UniProt (SwissProt) Entry Name of Target Chain>
SRC_HUMAN

> <UniProt (SwissProt) Primary ID of Target Chain>
P12931

> <UniProt (SwissProt) Secondary ID(s) of Target Chain>
E1P5V4,Q76P87,Q86VB9,Q9H5A8

> <UniProt (SwissProt) Alternative ID(s) of Target Chain>


> <UniProt (TrEMBL) Submitted Name of Target Chain>


> <UniProt (TrEMBL) Entry Name of Target Chain>


> <UniProt (TrEMBL) Primary ID of Target Chain>


> <UniProt (TrEMBL) Secondary ID(s) of Target Chain>


> <UniProt (TrEMBL) Alternative ID(s) of Target Chain>


$$$$
6_7-dialkoxyquinoline-3-carbonitrile

Vconf v2.0 Academic SN VC001-00000579
 38 40  0  0  0  0  0  0  0  0999 V2000
    0.2560    2.2010    0.2910 C   0  0  0  0  0  0  0  0  0  0  0
    1.3480    0.0410   -0.0540 C   0  0  0  0  0  0  0  0  0  0  0
   -0.7730    0.0990    1.0080 C   0  0  0  0  0  0  0  0  0  0  0
   -0.8220    1.5160    0.9190 C   0  0  0  0  0  0  0  0  0  0  0
   -1.9750    2.1670    1.4190 C   0  0  0  0  0  0  0  0  0  0  0
   -3.0380    1.4380    1.9800 C   0  0  0  0  0  0  0  0  0  0  0
   -2.9530    0.0370    2.0850 C   0  0  0  0  0  0  0  0  0  0  0
   -1.8240   -0.6310    1.5860 C   0  0  0  0  0  0  0  0  0  0  0
    0.2930   -0.5730    0.5240 N   0  0  0  0  0  0  0  0  0  0  0
    1.3690    1.4410   -0.1820 C   0  0  0  0  0  0  0  0  0  0  0
   -3.9470   -0.6910    2.6580 O   0  0  0  0  0  0  0  0  0  0  0
   -4.1390    2.1040    2.4160 O   0  0  0  0  0  0  0  0  0  0  0
    2.4390    1.9550   -0.7260 C   0  0  0  0  0  0  0  0  0  0  0
    3.3840    2.3980   -1.2050 N   0  0  0  0  0  0  0  0  0  0  0
    0.1160    3.5630    0.1340 N   0  0  0  0  0  0  0  0  0  0  0
    0.7860    4.3430   -0.7520 C   0  0  0  0  0  0  0  0  0  0  0
    1.2840    4.9310   -3.0680 C   0  0  0  0  0  0  0  0  0  0  0
    0.5340    4.1990   -2.1350 C   0  0  0  0  0  0  0  0  0  0  0
    1.7400    5.2830   -0.3130 C   0  0  0  0  0  0  0  0  0  0  0
    2.4870    6.0170   -1.2500 C   0  0  0  0  0  0  0  0  0  0  0
   -5.2660    2.1730    1.5380 C   0  0  0  0  0  0  0  0  0  0  0
   -4.0250   -0.6950    4.0850 C   0  0  0  0  0  0  0  0  0  0  0
    2.2730    5.8300   -2.6300 C   0  0  0  0  0  0  0  0  0  0  0
    3.1990    6.6750   -3.7640 Cl  0  0  0  0  0  0  0  0  0  0  0
   -0.3850    3.3820   -2.5740 F   0  0  0  0  0  0  0  0  0  0  0
    2.1190   -0.5380   -0.3990 H   0  0  0  0  0  0  0  0  0  0  0
   -2.0630    3.1810    1.3750 H   0  0  0  0  0  0  0  0  0  0  0
   -1.7710   -1.6480    1.6440 H   0  0  0  0  0  0  0  0  0  0  0
   -0.6290    3.9860    0.5840 H   0  0  0  0  0  0  0  0  0  0  0
    1.1030    4.8010   -4.0640 H   0  0  0  0  0  0  0  0  0  0  0
    1.9100    5.4250    0.6840 H   0  0  0  0  0  0  0  0  0  0  0
    3.1870    6.6840   -0.9210 H   0  0  0  0  0  0  0  0  0  0  0
   -6.0750    2.7010    2.0430 H   0  0  0  0  0  0  0  0  0  0  0
   -5.0080    2.7150    0.6260 H   0  0  0  0  0  0  0  0  0  0  0
   -5.6080    1.1690    1.2780 H   0  0  0  0  0  0  0  0  0  0  0
   -4.8290   -1.3640    4.3930 H   0  0  0  0  0  0  0  0  0  0  0
   -3.0870   -1.0510    4.5140 H   0  0  0  0  0  0  0  0  0  0  0
   -4.2380    0.3090    4.4590 H   0  0  0  0  0  0  0  0  0  0  0
  1  4  2  0  0  0  0
  1 10  1  0  0  0  0
  1 15  1  0  0  0  0
  2  9  1  0  0  0  0
  2 10  2  0  0  0  0
  2 26  1  0  0  0  0
  3  4  1  0  0  0  0
  3  8  1  0  0  0  0
  3  9  2  0  0  0  0
  4  5  1  0  0  0  0
  5  6  2  0  0  0  0
  5 27  1  0  0  0  0
  6  7  1  0  0  0  0
  6 12  1  0  0  0  0
  7  8  2  0  0  0  0
  7 11  1  0  0  0  0
  8 28  1  0  0  0  0
 10 13  1  0  0  0  0
 11 22  1  0  0  0  0
 12 21  1  0  0  0  0
 13 14  3  0  0  0  0
 15 16  1  0  0  0  0
 15 29  1  0  0  0  0
 16 18  2  0  0  0  0
 16 19  1  0  0  0  0
 17 18  1  0  0  0  0
 17 23  2  0  0  0  0
 17 30  1  0  0  0  0
 18 25  1  0  0  0  0
 19 20  2  0  0  0  0
 19 31  1  0  0  0  0
 20 23  1  0  0  0  0
 20 32  1  0  0  0  0
 21 33  1  0  0  0  0
 21 34  1  0  0  0  0
 21 35  1  0  0  0  0
 22 36  1  0  0  0  0
 22 37  1  0  0  0  0
 22 38  1  0  0  0  0
 23 24  1  0  0  0  0
M  END
> <From>
www.bindingDB.org

> <BindingDB Reactant_set_id>
6700

> <Ligand InChI>
InChI=1S/C18H13ClFN3O2/c1-24-16-6-12-15(7-17(16)25-2)22-9-10(8-21)18(12)23-14-4-3-11(19)5-13(14)20/h3-7,9H,1-2H3,(H,22,23)

> <Ligand InChI Key>
AZGVCABJHURYHG-UHFFFAOYSA-N

> <BindingDB MonomerID>
4457

> <BindingDB Ligand Name>
4-(4-Chloro-2-fluorophenylamino)-6,7-dimethoxyquinoline-3-carbonitrile::4-Phenylamino-3-quinolinecarbonitrile deriv. 2r::4-[(4-chloro-2-fluorophenyl)amino]-6,7-dimethoxyquinoline-3-carbonitrile::6,7-dialkoxyquinoline-3-carbonitrile deriv. 20

> <Target Name Assigned by Curator or DataSource>
Proto-oncogene tyrosine-protein kinase Src

> <Target Source Organism According to Curator or DataSource>


> <Ki (nM)>


> <IC50 (nM)>
 53

> <Kd (nM)>


> <EC50 (nM)>


> <kon (M-1-s-1)>


> <koff (s-1)>


> <pH>


> <Temp C>


> <Curation/DataSource>
Curated from the literature by BindingDB

> <Article DOI>
10.1021/jm000420z

> <PMID>
11262092

> <PubChem AID>


> <Patent Number>


> <Authors>
Boschelli, DH; Wang, YD; Ye, F; Wu, B; Zhang, N; Dutia, M; Powell, DW; Wissner, A; Arndt, K; Weber, JM; Boschelli, F

> <Institution>
Wyeth-Ayerst Research

> <Link to Ligand in BindingDB>
http://www.bindingdb.org/bind/chemsearch/marvin/MolStructure.jsp?monomerid=4457

> <Link to Ligand-Target Pair in BindingDB>
http://www.bindingdb.org/jsp/dbsearch/PrimarySearch_ki.jsp?energyterm=kJ/mole&tag=pol&polymerid=13&target=Proto-oncogene+tyrosine-protein+kinase+Src&column=ki&startPg=0&Increment=50&submit=Search

> <Link to Ligand-Target Pair in BindingDB>
http://www.bindingdb.org/jsp/dbsearch/PrimarySearch_ki.jsp?energyterm=kJ/mole&tag=r21&monomerid=4457&enzyme=Proto-oncogene+tyrosine-protein+kinase+Src&column=ki&startPg=0&Increment=50&submit=Search

> <Ligand HET ID in PDB>


> <PDB ID(s) for Ligand-Target Complex>


> <PubChem CID>
5328852

> <PubChem SID>
8034126

> <ChEBI ID of Ligand>


> <ChEMBL ID of Ligand>


> <DrugBank ID of Ligand>


> <IUPHAR_GRAC ID of Ligand>


> <KEGG ID of Ligand>


> <ZINC ID of Ligand>
ZINC13812938

> <Number of Protein Chains in Target (bigger than 1 a multichain complex)>
1

> <BindingDB Target Chain Sequence>
MGSNKSKPKDASQRRRSLEPAENVHGAGGGAFPASQTPSKPASADGHRGPSAAFAPAAAEPKLFGGFNSSDTVTSPQRAGPLAGGVTTFVALYDYESRTETDLSFKKGERLQIVNNTEGDWWLAHSLSTGQTGYIPSNYVAPSDSIQAEEWYFGKITRRESERLLLNAENPRGTFLVRESETTKGAYCLSVSDFDNAKGLNVKHYKIRKLDSGGFYITSRTQFNSLQQLVAYYSKHADGLCHRLTTVCPTSKPQTQGLAKDAWEIPRESLRLEVKLGQGCFGEVWMGTWNGTTRVAIKTLKPGTMSPEAFLQEAQVMKKLRHEKLVQLYAVVSEEPIYIVTEYMSKGSLLDFLKGETGKYLRLPQLVDMAAQIASGMAYVERMNYVHRDLRAANILVGENLVCKVADFGLARLIEDNEYTARQGAKFPIKWTAPEAALYGRFTIKSDVWSFGILLTELTTKGRVPYPGMVNREVLDQVERGYRMPCPPECPESLHDLMCQCWRKEPEERPTFEYLQAFLEDYFTSTEPQYQPGENL

> <PDB ID(s) of Target Chain>
1FMK,1HCS,1HCT,1O41,1O42,1O43,1O44,1O45,1O46,1O47,1O48,1O49,1O4A,1O4B,1O4C,1O4D,1O4E,1O4F,1O4G,1O4H,1O4I,1O4J,1O4K,1O4L,1O4M,1O4N,1O4O,1O4P,1O4Q,1O4R,1SHA,1SHB,1SHD,1SPR,1SPS,1Y57,1YI6,2BDF,2BDJ,2H8H,2PTK,2SRC,4MXO,4MXX,4OML,4OMO,5OB0,5OB1,6ATE,6E6E

> <UniProt (SwissProt) Recommended Name of Target Chain>
Proto-oncogene tyrosine-protein kinase Src

> <UniProt (SwissProt) Entry Name of Target Chain>
SRC_HUMAN

> <UniProt (SwissProt) Primary ID of Target Chain>
P12931

> <UniProt (SwissProt) Secondary ID(s) of Target Chain>
E1P5V4,Q76P87,Q86VB9,Q9H5A8

> <UniProt (SwissProt) Alternative ID(s) of Target Chain>


> <UniProt (TrEMBL) Submitted Name of Target Chain>


> <UniProt (TrEMBL) Entry Name of Target Chain>


> <UniProt (TrEMBL) Primary ID of Target Chain>


> <UniProt (TrEMBL) Secondary ID(s) of Target Chain>


> <UniProt (TrEMBL) Alternative ID(s) of Target Chain>


$$$$
6_7-Dimethoxyquinoline

Vconf v2.0 Academic SN VC001-00000579
 38 40  0  0  0  0  0  0  0  0999 V2000
   -1.4490    2.8560    1.2350 C   0  0  0  0  0  0  0  0  0  0  0
   -2.6230    2.5320    0.5290 C   0  0  0  0  0  0  0  0  0  0  0
   -2.9660    1.1800    0.3210 C   0  0  0  0  0  0  0  0  0  0  0
   -2.1110    0.1680    0.7770 C   0  0  0  0  0  0  0  0  0  0  0
   -0.5820    1.8480    1.7210 C   0  0  0  0  0  0  0  0  0  0  0
   -0.9310    0.4960    1.4630 C   0  0  0  0  0  0  0  0  0  0  0
    0.6010    2.1240    2.4610 C   0  0  0  0  0  0  0  0  0  0  0
    1.0120   -0.2870    2.5690 C   0  0  0  0  0  0  0  0  0  0  0
    1.4150    1.0270    2.8720 C   0  0  0  0  0  0  0  0  0  0  0
   -0.1330   -0.5080    1.8900 N   0  0  0  0  0  0  0  0  0  0  0
    2.5430    1.1400    3.5100 C   0  0  0  0  0  0  0  0  0  0  0
    3.5400    1.2270    4.0740 N   0  0  0  0  0  0  0  0  0  0  0
    0.8560    3.4490    2.7420 N   0  0  0  0  0  0  0  0  0  0  0
    1.8250    3.9480    3.5500 C   0  0  0  0  0  0  0  0  0  0  0
    2.7190    4.4910    5.7560 C   0  0  0  0  0  0  0  0  0  0  0
    1.6580    4.0300    4.9510 C   0  0  0  0  0  0  0  0  0  0  0
    3.0300    4.3810    2.9660 C   0  0  0  0  0  0  0  0  0  0  0
    4.0850    4.8430    3.7710 C   0  0  0  0  0  0  0  0  0  0  0
    3.9360    4.8870    5.1700 C   0  0  0  0  0  0  0  0  0  0  0
    0.2070    3.5610    5.6950 Cl  0  0  0  0  0  0  0  0  0  0  0
    5.2120    5.4160    6.1460 Cl  0  0  0  0  0  0  0  0  0  0  0
   -4.1110    0.8250   -0.3200 O   0  0  0  0  0  0  0  0  0  0  0
   -5.3370    0.9250    0.4080 C   0  0  0  0  0  0  0  0  0  0  0
   -3.4170    3.5390    0.0770 O   0  0  0  0  0  0  0  0  0  0  0
   -3.5180    3.7460   -1.3350 C   0  0  0  0  0  0  0  0  0  0  0
   -1.2330    3.8420    1.3850 H   0  0  0  0  0  0  0  0  0  0  0
   -2.3550   -0.8110    0.6210 H   0  0  0  0  0  0  0  0  0  0  0
    1.5760   -1.0930    2.8520 H   0  0  0  0  0  0  0  0  0  0  0
    0.2490    4.1030    2.3640 H   0  0  0  0  0  0  0  0  0  0  0
    2.6110    4.5320    6.7720 H   0  0  0  0  0  0  0  0  0  0  0
    3.1520    4.3330    1.9540 H   0  0  0  0  0  0  0  0  0  0  0
    4.9620    5.1250    3.3320 H   0  0  0  0  0  0  0  0  0  0  0
   -6.1540    0.5780   -0.2230 H   0  0  0  0  0  0  0  0  0  0  0
   -5.2970    0.3010    1.3030 H   0  0  0  0  0  0  0  0  0  0  0
   -5.5280    1.9600    0.6950 H   0  0  0  0  0  0  0  0  0  0  0
   -4.2020    4.5730   -1.5250 H   0  0  0  0  0  0  0  0  0  0  0
   -2.5380    3.9980   -1.7440 H   0  0  0  0  0  0  0  0  0  0  0
   -3.9000    2.8540   -1.8350 H   0  0  0  0  0  0  0  0  0  0  0
  1  2  1  0  0  0  0
  1  5  2  0  0  0  0
  1 26  1  0  0  0  0
  2  3  2  0  0  0  0
  2 24  1  0  0  0  0
  3  4  1  0  0  0  0
  3 22  1  0  0  0  0
  4  6  2  0  0  0  0
  4 27  1  0  0  0  0
  5  6  1  0  0  0  0
  5  7  1  0  0  0  0
  6 10  1  0  0  0  0
  7  9  2  0  0  0  0
  7 13  1  0  0  0  0
  8  9  1  0  0  0  0
  8 10  2  0  0  0  0
  8 28  1  0  0  0  0
  9 11  1  0  0  0  0
 11 12  3  0  0  0  0
 13 14  1  0  0  0  0
 13 29  1  0  0  0  0
 14 16  2  0  0  0  0
 14 17  1  0  0  0  0
 15 16  1  0  0  0  0
 15 19  2  0  0  0  0
 15 30  1  0  0  0  0
 16 20  1  0  0  0  0
 17 18  2  0  0  0  0
 17 31  1  0  0  0  0
 18 19  1  0  0  0  0
 18 32  1  0  0  0  0
 19 21  1  0  0  0  0
 22 23  1  0  0  0  0
 23 33  1  0  0  0  0
 23 34  1  0  0  0  0
 23 35  1  0  0  0  0
 24 25  1  0  0  0  0
 25 36  1  0  0  0  0
 25 37  1  0  0  0  0
 25 38  1  0  0  0  0
M  END
> <From>
www.bindingDB.org

> <BindingDB Reactant_set_id>
6710

> <Ligand InChI>
InChI=1S/C18H13Cl2N3O2/c1-24-16-6-12-15(7-17(16)25-2)22-9-10(8-21)18(12)23-14-4-3-11(19)5-13(14)20/h3-7,9H,1-2H3,(H,22,23)

> <Ligand InChI Key>
IUZCVUGIDCZCEQ-UHFFFAOYSA-N

> <BindingDB MonomerID>
4492

> <BindingDB Ligand Name>
4-[(2,4-Dichlorophenyl)amino]-6,7-dimethoxy-3-quinolinecarbonitrile::4-[(2,4-dichlorophenyl)amino]-6,7-dimethoxyquinoline-3-carbonitrile::6,7-Dimethoxyquinoline deriv. 2a::CHEMBL101917

> <Target Name Assigned by Curator or DataSource>
Proto-oncogene tyrosine-protein kinase Src

> <Target Source Organism According to Curator or DataSource>


> <Ki (nM)>


> <IC50 (nM)>
 30

> <Kd (nM)>


> <EC50 (nM)>


> <kon (M-1-s-1)>


> <koff (s-1)>


> <pH>
7.5

> <Temp C>
30.00

> <Curation/DataSource>
Curated from the literature by BindingDB

> <Article DOI>
10.1021/jm0102250

> <PMID>
11689083

> <PubChem AID>


> <Patent Number>


> <Authors>
Boschelli, DH; Ye, F; Wang, YD; Dutia, M; Johnson, SL; Wu, B; Miller, K; Powell, DW; Yaczko, D; Young, M; Tischler, M; Arndt, K; Discafani, C; Etienne, C; Gibbons, J; Grod, J; Lucas, J; Weber, JM; Boschelli, F

> <Institution>
Wyeth-Ayerst Research

> <Link to Ligand in BindingDB>
http://www.bindingdb.org/bind/chemsearch/marvin/MolStructure.jsp?monomerid=4492

> <Link to Ligand-Target Pair in BindingDB>
http://www.bindingdb.org/jsp/dbsearch/PrimarySearch_ki.jsp?energyterm=kJ/mole&tag=pol&polymerid=13&target=Proto-oncogene+tyrosine-protein+kinase+Src&column=ki&startPg=0&Increment=50&submit=Search

> <Link to Ligand-Target Pair in BindingDB>
http://www.bindingdb.org/jsp/dbsearch/PrimarySearch_ki.jsp?energyterm=kJ/mole&tag=r21&monomerid=4492&enzyme=Proto-oncogene+tyrosine-protein+kinase+Src&column=ki&startPg=0&Increment=50&submit=Search

> <Ligand HET ID in PDB>


> <PDB ID(s) for Ligand-Target Complex>


> <PubChem CID>
5328887

> <PubChem SID>
8034161

> <ChEBI ID of Ligand>


> <ChEMBL ID of Ligand>
CHEMBL101917

> <DrugBank ID of Ligand>


> <IUPHAR_GRAC ID of Ligand>


> <KEGG ID of Ligand>


> <ZINC ID of Ligand>
ZINC13470095

> <Number of Protein Chains in Target (bigger than 1 a multichain complex)>
1

> <BindingDB Target Chain Sequence>
MGSNKSKPKDASQRRRSLEPAENVHGAGGGAFPASQTPSKPASADGHRGPSAAFAPAAAEPKLFGGFNSSDTVTSPQRAGPLAGGVTTFVALYDYESRTETDLSFKKGERLQIVNNTEGDWWLAHSLSTGQTGYIPSNYVAPSDSIQAEEWYFGKITRRESERLLLNAENPRGTFLVRESETTKGAYCLSVSDFDNAKGLNVKHYKIRKLDSGGFYITSRTQFNSLQQLVAYYSKHADGLCHRLTTVCPTSKPQTQGLAKDAWEIPRESLRLEVKLGQGCFGEVWMGTWNGTTRVAIKTLKPGTMSPEAFLQEAQVMKKLRHEKLVQLYAVVSEEPIYIVTEYMSKGSLLDFLKGETGKYLRLPQLVDMAAQIASGMAYVERMNYVHRDLRAANILVGENLVCKVADFGLARLIEDNEYTARQGAKFPIKWTAPEAALYGRFTIKSDVWSFGILLTELTTKGRVPYPGMVNREVLDQVERGYRMPCPPECPESLHDLMCQCWRKEPEERPTFEYLQAFLEDYFTSTEPQYQPGENL

> <PDB ID(s) of Target Chain>
1FMK,1HCS,1HCT,1O41,1O42,1O43,1O44,1O45,1O46,1O47,1O48,1O49,1O4A,1O4B,1O4C,1O4D,1O4E,1O4F,1O4G,1O4H,1O4I,1O4J,1O4K,1O4L,1O4M,1O4N,1O4O,1O4P,1O4Q,1O4R,1SHA,1SHB,1SHD,1SPR,1SPS,1Y57,1YI6,2BDF,2BDJ,2H8H,2PTK,2SRC,4MXO,4MXX,4OML,4OMO,5OB0,5OB1,6ATE,6E6E

> <UniProt (SwissProt) Recommended Name of Target Chain>
Proto-oncogene tyrosine-protein kinase Src

> <UniProt (SwissProt) Entry Name of Target Chain>
SRC_HUMAN

> <UniProt (SwissProt) Primary ID of Target Chain>
P12931

> <UniProt (SwissProt) Secondary ID(s) of Target Chain>
E1P5V4,Q76P87,Q86VB9,Q9H5A8

> <UniProt (SwissProt) Alternative ID(s) of Target Chain>


> <UniProt (TrEMBL) Submitted Name of Target Chain>


> <UniProt (TrEMBL) Entry Name of Target Chain>


> <UniProt (TrEMBL) Primary ID of Target Chain>


> <UniProt (TrEMBL) Secondary ID(s) of Target Chain>


> <UniProt (TrEMBL) Alternative ID(s) of Target Chain>


$$$$
6_7-Dimethoxyquinoline

Vconf v2.0 Academic SN VC001-00000579
 37 39  0  0  0  0  0  0  0  0999 V2000
   -1.3830    2.7400    1.3040 C   0  0  0  0  0  0  0  0  0  0  0
   -2.5580    2.4590    0.5850 C   0  0  0  0  0  0  0  0  0  0  0
   -2.9660    1.1200    0.3970 C   0  0  0  0  0  0  0  0  0  0  0
   -2.1700    0.0760    0.8960 C   0  0  0  0  0  0  0  0  0  0  0
   -0.5800    1.7000    1.8230 C   0  0  0  0  0  0  0  0  0  0  0
   -0.9900    0.3570    1.6050 C   0  0  0  0  0  0  0  0  0  0  0
    0.6160    1.9370    2.5470 C   0  0  0  0  0  0  0  0  0  0  0
    0.9030   -0.4740    2.7750 C   0  0  0  0  0  0  0  0  0  0  0
   -0.2430   -0.6670    2.0840 N   0  0  0  0  0  0  0  0  0  0  0
    1.0210    3.2290    2.7490 N   0  0  0  0  0  0  0  0  0  0  0
    2.1290    3.6490    3.4150 C   0  0  0  0  0  0  0  0  0  0  0
    4.2950    4.7750    3.4510 C   0  0  0  0  0  0  0  0  0  0  0
    3.1700    4.3210    2.7350 C   0  0  0  0  0  0  0  0  0  0  0
    2.2170    3.4650    4.8100 C   0  0  0  0  0  0  0  0  0  0  0
    3.3400    3.9190    5.5200 C   0  0  0  0  0  0  0  0  0  0  0
    4.3840    4.5740    4.8410 C   0  0  0  0  0  0  0  0  0  0  0
    3.1060    4.5940    1.0630 Cl  0  0  0  0  0  0  0  0  0  0  0
    5.7380    5.1220    5.6950 Cl  0  0  0  0  0  0  0  0  0  0  0
   -4.1060    0.7880   -0.2680 O   0  0  0  0  0  0  0  0  0  0  0
   -5.3670    1.2340    0.2360 C   0  0  0  0  0  0  0  0  0  0  0
   -3.2690    3.5110    0.0970 O   0  0  0  0  0  0  0  0  0  0  0
   -3.3900    3.6670   -1.3190 C   0  0  0  0  0  0  0  0  0  0  0
    1.3580    0.8300    3.0190 C   0  0  0  0  0  0  0  0  0  0  0
   -1.1160    3.7160    1.4360 H   0  0  0  0  0  0  0  0  0  0  0
   -2.4570   -0.8930    0.7500 H   0  0  0  0  0  0  0  0  0  0  0
    1.4360   -1.2750    3.1160 H   0  0  0  0  0  0  0  0  0  0  0
    0.4850    3.9250    2.3410 H   0  0  0  0  0  0  0  0  0  0  0
    5.0520    5.2560    2.9600 H   0  0  0  0  0  0  0  0  0  0  0
    1.4620    2.9970    5.3120 H   0  0  0  0  0  0  0  0  0  0  0
    3.3890    3.7720    6.5290 H   0  0  0  0  0  0  0  0  0  0  0
   -6.1590    0.8310   -0.3950 H   0  0  0  0  0  0  0  0  0  0  0
   -5.5130    0.8740    1.2560 H   0  0  0  0  0  0  0  0  0  0  0
   -5.4310    2.3230    0.2240 H   0  0  0  0  0  0  0  0  0  0  0
   -3.9600    4.5720   -1.5240 H   0  0  0  0  0  0  0  0  0  0  0
   -2.4020    3.7620   -1.7720 H   0  0  0  0  0  0  0  0  0  0  0
   -3.9110    2.8160   -1.7610 H   0  0  0  0  0  0  0  0  0  0  0
    2.2280    0.9620    3.5330 H   0  0  0  0  0  0  0  0  0  0  0
  1  2  1  0  0  0  0
  1  5  2  0  0  0  0
  1 24  1  0  0  0  0
  2  3  2  0  0  0  0
  2 21  1  0  0  0  0
  3  4  1  0  0  0  0
  3 19  1  0  0  0  0
  4  6  2  0  0  0  0
  4 25  1  0  0  0  0
  5  6  1  0  0  0  0
  5  7  1  0  0  0  0
  6  9  1  0  0  0  0
  7 10  1  0  0  0  0
  7 23  2  0  0  0  0
  8  9  2  0  0  0  0
  8 23  1  0  0  0  0
  8 26  1  0  0  0  0
 10 11  1  0  0  0  0
 10 27  1  0  0  0  0
 11 13  2  0  0  0  0
 11 14  1  0  0  0  0
 12 13  1  0  0  0  0
 12 16  2  0  0  0  0
 12 28  1  0  0  0  0
 13 17  1  0  0  0  0
 14 15  2  0  0  0  0
 14 29  1  0  0  0  0
 15 16  1  0  0  0  0
 15 30  1  0  0  0  0
 16 18  1  0  0  0  0
 19 20  1  0  0  0  0
 20 31  1  0  0  0  0
 20 32  1  0  0  0  0
 20 33  1  0  0  0  0
 21 22  1  0  0  0  0
 22 34  1  0  0  0  0
 22 35  1  0  0  0  0
 22 36  1  0  0  0  0
 23 37  1  0  0  0  0
M  END
> <From>
www.bindingDB.org

> <BindingDB Reactant_set_id>
6725

> <Ligand InChI>
InChI=1S/C17H14Cl2N2O2/c1-22-16-8-11-13(5-6-20-15(11)9-17(16)23-2)21-14-4-3-10(18)7-12(14)19/h3-9H,1-2H3,(H,20,21)

> <Ligand InChI Key>
AMKPAGTWVTZQPM-UHFFFAOYSA-N

> <BindingDB MonomerID>
4494

> <BindingDB Ligand Name>
(2,4-Dichlorophenyl)(6,7-dimethoxyquinolin-4-yl)-amine::6,7-Dimethoxyquinoline deriv. 6::N-(2,4-dichlorophenyl)-6,7-dimethoxyquinolin-4-amine::quinazoline deriv. 4a

> <Target Name Assigned by Curator or DataSource>
Proto-oncogene tyrosine-protein kinase Src

> <Target Source Organism According to Curator or DataSource>


> <Ki (nM)>


> <IC50 (nM)>
 84

> <Kd (nM)>


> <EC50 (nM)>


> <kon (M-1-s-1)>


> <koff (s-1)>


> <pH>
7.5

> <Temp C>
30.00

> <Curation/DataSource>
Curated from the literature by BindingDB

> <Article DOI>
10.1021/jm0102250

> <PMID>
11689083

> <PubChem AID>


> <Patent Number>


> <Authors>
Boschelli, DH; Ye, F; Wang, YD; Dutia, M; Johnson, SL; Wu, B; Miller, K; Powell, DW; Yaczko, D; Young, M; Tischler, M; Arndt, K; Discafani, C; Etienne, C; Gibbons, J; Grod, J; Lucas, J; Weber, JM; Boschelli, F

> <Institution>
Wyeth-Ayerst Research

> <Link to Ligand in BindingDB>
http://www.bindingdb.org/bind/chemsearch/marvin/MolStructure.jsp?monomerid=4494

> <Link to Ligand-Target Pair in BindingDB>
http://www.bindingdb.org/jsp/dbsearch/PrimarySearch_ki.jsp?energyterm=kJ/mole&tag=pol&polymerid=13&target=Proto-oncogene+tyrosine-protein+kinase+Src&column=ki&startPg=0&Increment=50&submit=Search

> <Link to Ligand-Target Pair in BindingDB>
http://www.bindingdb.org/jsp/dbsearch/PrimarySearch_ki.jsp?energyterm=kJ/mole&tag=r21&monomerid=4494&enzyme=Proto-oncogene+tyrosine-protein+kinase+Src&column=ki&startPg=0&Increment=50&submit=Search

> <Ligand HET ID in PDB>


> <PDB ID(s) for Ligand-Target Complex>


> <PubChem CID>
5328888

> <PubChem SID>
8034163

> <ChEBI ID of Ligand>


> <ChEMBL ID of Ligand>


> <DrugBank ID of Ligand>


> <IUPHAR_GRAC ID of Ligand>


> <KEGG ID of Ligand>


> <ZINC ID of Ligand>
ZINC13470109

> <Number of Protein Chains in Target (bigger than 1 a multichain complex)>
1

> <BindingDB Target Chain Sequence>
MGSNKSKPKDASQRRRSLEPAENVHGAGGGAFPASQTPSKPASADGHRGPSAAFAPAAAEPKLFGGFNSSDTVTSPQRAGPLAGGVTTFVALYDYESRTETDLSFKKGERLQIVNNTEGDWWLAHSLSTGQTGYIPSNYVAPSDSIQAEEWYFGKITRRESERLLLNAENPRGTFLVRESETTKGAYCLSVSDFDNAKGLNVKHYKIRKLDSGGFYITSRTQFNSLQQLVAYYSKHADGLCHRLTTVCPTSKPQTQGLAKDAWEIPRESLRLEVKLGQGCFGEVWMGTWNGTTRVAIKTLKPGTMSPEAFLQEAQVMKKLRHEKLVQLYAVVSEEPIYIVTEYMSKGSLLDFLKGETGKYLRLPQLVDMAAQIASGMAYVERMNYVHRDLRAANILVGENLVCKVADFGLARLIEDNEYTARQGAKFPIKWTAPEAALYGRFTIKSDVWSFGILLTELTTKGRVPYPGMVNREVLDQVERGYRMPCPPECPESLHDLMCQCWRKEPEERPTFEYLQAFLEDYFTSTEPQYQPGENL

> <PDB ID(s) of Target Chain>
1FMK,1HCS,1HCT,1O41,1O42,1O43,1O44,1O45,1O46,1O47,1O48,1O49,1O4A,1O4B,1O4C,1O4D,1O4E,1O4F,1O4G,1O4H,1O4I,1O4J,1O4K,1O4L,1O4M,1O4N,1O4O,1O4P,1O4Q,1O4R,1SHA,1SHB,1SHD,1SPR,1SPS,1Y57,1YI6,2BDF,2BDJ,2H8H,2PTK,2SRC,4MXO,4MXX,4OML,4OMO,5OB0,5OB1,6ATE,6E6E

> <UniProt (SwissProt) Recommended Name of Target Chain>
Proto-oncogene tyrosine-protein kinase Src

> <UniProt (SwissProt) Entry Name of Target Chain>
SRC_HUMAN

> <UniProt (SwissProt) Primary ID of Target Chain>
P12931

> <UniProt (SwissProt) Secondary ID(s) of Target Chain>
E1P5V4,Q76P87,Q86VB9,Q9H5A8

> <UniProt (SwissProt) Alternative ID(s) of Target Chain>


> <UniProt (TrEMBL) Submitted Name of Target Chain>


> <UniProt (TrEMBL) Entry Name of Target Chain>


> <UniProt (TrEMBL) Primary ID of Target Chain>


> <UniProt (TrEMBL) Secondary ID(s) of Target Chain>


> <UniProt (TrEMBL) Alternative ID(s) of Target Chain>


$$$$
6_7-dialkoxyquinoline-3-carbonitrile

Vconf v2.0 Academic SN VC001-00000579
 46 48  0  0  0  0  0  0  0  0999 V2000
    0.2520    2.1740    0.3030 C   0  0  0  0  0  0  0  0  0  0  0
    1.3360    0.0200   -0.0870 C   0  0  0  0  0  0  0  0  0  0  0
   -0.8050    0.0590    0.9370 C   0  0  0  0  0  0  0  0  0  0  0
   -0.8690    1.4730    0.8300 C   0  0  0  0  0  0  0  0  0  0  0
   -2.0370    2.1170    1.3010 C   0  0  0  0  0  0  0  0  0  0  0
   -3.0840    1.3940    1.8940 C   0  0  0  0  0  0  0  0  0  0  0
   -2.9810   -0.0060    2.0330 C   0  0  0  0  0  0  0  0  0  0  0
   -1.8520   -0.6700    1.5290 C   0  0  0  0  0  0  0  0  0  0  0
    0.2810   -0.6040    0.4780 N   0  0  0  0  0  0  0  0  0  0  0
    1.3550    1.4260   -0.1980 C   0  0  0  0  0  0  0  0  0  0  0
   -3.9590   -0.7320    2.6470 O   0  0  0  0  0  0  0  0  0  0  0
   -4.1620    2.0800    2.3570 O   0  0  0  0  0  0  0  0  0  0  0
    2.3920    1.9520   -0.7890 C   0  0  0  0  0  0  0  0  0  0  0
    3.3100    2.4060   -1.3110 N   0  0  0  0  0  0  0  0  0  0  0
    0.2000    3.5530    0.3730 N   0  0  0  0  0  0  0  0  0  0  0
    1.2610    4.3950    0.3450 C   0  0  0  0  0  0  0  0  0  0  0
    2.7190    5.9980   -0.7780 C   0  0  0  0  0  0  0  0  0  0  0
    1.5490    5.2110   -0.7680 C   0  0  0  0  0  0  0  0  0  0  0
    2.0880    4.4450    1.4820 C   0  0  0  0  0  0  0  0  0  0  0
    3.2340    5.2520    1.4840 C   0  0  0  0  0  0  0  0  0  0  0
   -5.4010    1.9580    1.6590 C   0  0  0  0  0  0  0  0  0  0  0
   -4.0630   -0.6600    4.0720 C   0  0  0  0  0  0  0  0  0  0  0
    3.5680    6.0060    0.3480 C   0  0  0  0  0  0  0  0  0  0  0
    3.0450    6.7720   -1.8460 O   0  0  0  0  0  0  0  0  0  0  0
    3.2560    6.1420   -3.1100 C   0  0  0  0  0  0  0  0  0  0  0
    4.7140    6.7360    0.3680 O   0  0  0  0  0  0  0  0  0  0  0
    5.8480    6.2150   -0.3310 C   0  0  0  0  0  0  0  0  0  0  0
    2.1200   -0.5430   -0.4220 H   0  0  0  0  0  0  0  0  0  0  0
   -2.1410    3.1290    1.2210 H   0  0  0  0  0  0  0  0  0  0  0
   -1.7850   -1.6850    1.6060 H   0  0  0  0  0  0  0  0  0  0  0
   -0.6370    3.9530    0.6470 H   0  0  0  0  0  0  0  0  0  0  0
    0.9180    5.2290   -1.5710 H   0  0  0  0  0  0  0  0  0  0  0
    1.8600    3.8870    2.3060 H   0  0  0  0  0  0  0  0  0  0  0
    3.8250    5.2860    2.3130 H   0  0  0  0  0  0  0  0  0  0  0
   -6.1550    2.5470    2.1810 H   0  0  0  0  0  0  0  0  0  0  0
   -5.3000    2.3400    0.6410 H   0  0  0  0  0  0  0  0  0  0  0
   -5.7250    0.9170    1.6280 H   0  0  0  0  0  0  0  0  0  0  0
   -4.8660   -1.3180    4.4050 H   0  0  0  0  0  0  0  0  0  0  0
   -3.1310   -0.9870    4.5350 H   0  0  0  0  0  0  0  0  0  0  0
   -4.2900    0.3580    4.3940 H   0  0  0  0  0  0  0  0  0  0  0
    3.5870    6.8920   -3.8290 H   0  0  0  0  0  0  0  0  0  0  0
    4.0280    5.3750   -3.0220 H   0  0  0  0  0  0  0  0  0  0  0
    2.3320    5.6890   -3.4700 H   0  0  0  0  0  0  0  0  0  0  0
    6.7000    6.8700   -0.1510 H   0  0  0  0  0  0  0  0  0  0  0
    6.0960    5.2130    0.0250 H   0  0  0  0  0  0  0  0  0  0  0
    5.6530    6.1780   -1.4040 H   0  0  0  0  0  0  0  0  0  0  0
  1  4  2  0  0  0  0
  1 10  1  0  0  0  0
  1 15  1  0  0  0  0
  2  9  1  0  0  0  0
  2 10  2  0  0  0  0
  2 28  1  0  0  0  0
  3  4  1  0  0  0  0
  3  8  1  0  0  0  0
  3  9  2  0  0  0  0
  4  5  1  0  0  0  0
  5  6  2  0  0  0  0
  5 29  1  0  0  0  0
  6  7  1  0  0  0  0
  6 12  1  0  0  0  0
  7  8  2  0  0  0  0
  7 11  1  0  0  0  0
  8 30  1  0  0  0  0
 10 13  1  0  0  0  0
 11 22  1  0  0  0  0
 12 21  1  0  0  0  0
 13 14  3  0  0  0  0
 15 16  1  0  0  0  0
 15 31  1  0  0  0  0
 16 18  2  0  0  0  0
 16 19  1  0  0  0  0
 17 18  1  0  0  0  0
 17 23  2  0  0  0  0
 17 24  1  0  0  0  0
 18 32  1  0  0  0  0
 19 20  2  0  0  0  0
 19 33  1  0  0  0  0
 20 23  1  0  0  0  0
 20 34  1  0  0  0  0
 21 35  1  0  0  0  0
 21 36  1  0  0  0  0
 21 37  1  0  0  0  0
 22 38  1  0  0  0  0
 22 39  1  0  0  0  0
 22 40  1  0  0  0  0
 23 26  1  0  0  0  0
 24 25  1  0  0  0  0
 25 41  1  0  0  0  0
 25 42  1  0  0  0  0
 25 43  1  0  0  0  0
 26 27  1  0  0  0  0
 27 44  1  0  0  0  0
 27 45  1  0  0  0  0
 27 46  1  0  0  0  0
M  END
> <From>
www.bindingDB.org

> <BindingDB Reactant_set_id>
10701

> <Ligand InChI>
InChI=1S/C20H19N3O4/c1-24-16-6-5-13(7-17(16)25-2)23-20-12(10-21)11-22-15-9-19(27-4)18(26-3)8-14(15)20/h5-9,11H,1-4H3,(H,22,23)

> <Ligand InChI Key>
PPNMPEHEXLGGID-UHFFFAOYSA-N

> <BindingDB MonomerID>
4448

> <BindingDB Ligand Name>
4-(3,4-Dimethoxyphenylamino)-6,7-dimethoxyquinoline-3-carbonitrile::4-Anilino-3-cyanoquinoline deriv. 7e::4-[(3,4-dimethoxyphenyl)amino]-6,7-dimethoxyquinoline-3-carbonitrile::6,7-dialkoxyquinoline-3-carbonitrile deriv. 11

> <Target Name Assigned by Curator or DataSource>
Proto-oncogene tyrosine-protein kinase Src

> <Target Source Organism According to Curator or DataSource>


> <Ki (nM)>


> <IC50 (nM)>
 950

> <Kd (nM)>


> <EC50 (nM)>


> <kon (M-1-s-1)>


> <koff (s-1)>


> <pH>
7.5

> <Temp C>
30.00

> <Curation/DataSource>
Curated from the literature by BindingDB

> <Article DOI>
10.1016/S0960-894X(00)00493-5

> <PMID>
11078204

> <PubChem AID>


> <Patent Number>


> <Authors>
Wang, YD; Miller, K; Boschelli, DH; Ye, F; Wu, B; Floyd, MB; Powell, DW; Wissner, A; Weber, JM; Boschelli, F

> <Institution>
Wyeth-Ayerst Research

> <Link to Ligand in BindingDB>
http://www.bindingdb.org/bind/chemsearch/marvin/MolStructure.jsp?monomerid=4448

> <Link to Ligand-Target Pair in BindingDB>
http://www.bindingdb.org/jsp/dbsearch/PrimarySearch_ki.jsp?energyterm=kJ/mole&tag=pol&polymerid=13&target=Proto-oncogene+tyrosine-protein+kinase+Src&column=ki&startPg=0&Increment=50&submit=Search

> <Link to Ligand-Target Pair in BindingDB>
http://www.bindingdb.org/jsp/dbsearch/PrimarySearch_ki.jsp?energyterm=kJ/mole&tag=r21&monomerid=4448&enzyme=Proto-oncogene+tyrosine-protein+kinase+Src&column=ki&startPg=0&Increment=50&submit=Search

> <Ligand HET ID in PDB>


> <PDB ID(s) for Ligand-Target Complex>


> <PubChem CID>
5328843

> <PubChem SID>
8034117

> <ChEBI ID of Ligand>


> <ChEMBL ID of Ligand>


> <DrugBank ID of Ligand>


> <IUPHAR_GRAC ID of Ligand>


> <KEGG ID of Ligand>


> <ZINC ID of Ligand>
ZINC03832365

> <Number of Protein Chains in Target (bigger than 1 a multichain complex)>
1

> <BindingDB Target Chain Sequence>
MGSNKSKPKDASQRRRSLEPAENVHGAGGGAFPASQTPSKPASADGHRGPSAAFAPAAAEPKLFGGFNSSDTVTSPQRAGPLAGGVTTFVALYDYESRTETDLSFKKGERLQIVNNTEGDWWLAHSLSTGQTGYIPSNYVAPSDSIQAEEWYFGKITRRESERLLLNAENPRGTFLVRESETTKGAYCLSVSDFDNAKGLNVKHYKIRKLDSGGFYITSRTQFNSLQQLVAYYSKHADGLCHRLTTVCPTSKPQTQGLAKDAWEIPRESLRLEVKLGQGCFGEVWMGTWNGTTRVAIKTLKPGTMSPEAFLQEAQVMKKLRHEKLVQLYAVVSEEPIYIVTEYMSKGSLLDFLKGETGKYLRLPQLVDMAAQIASGMAYVERMNYVHRDLRAANILVGENLVCKVADFGLARLIEDNEYTARQGAKFPIKWTAPEAALYGRFTIKSDVWSFGILLTELTTKGRVPYPGMVNREVLDQVERGYRMPCPPECPESLHDLMCQCWRKEPEERPTFEYLQAFLEDYFTSTEPQYQPGENL

> <PDB ID(s) of Target Chain>
1FMK,1HCS,1HCT,1O41,1O42,1O43,1O44,1O45,1O46,1O47,1O48,1O49,1O4A,1O4B,1O4C,1O4D,1O4E,1O4F,1O4G,1O4H,1O4I,1O4J,1O4K,1O4L,1O4M,1O4N,1O4O,1O4P,1O4Q,1O4R,1SHA,1SHB,1SHD,1SPR,1SPS,1Y57,1YI6,2BDF,2BDJ,2H8H,2PTK,2SRC,4MXO,4MXX,4OML,4OMO,5OB0,5OB1,6ATE,6E6E

> <UniProt (SwissProt) Recommended Name of Target Chain>
Proto-oncogene tyrosine-protein kinase Src

> <UniProt (SwissProt) Entry Name of Target Chain>
SRC_HUMAN

> <UniProt (SwissProt) Primary ID of Target Chain>
P12931

> <UniProt (SwissProt) Secondary ID(s) of Target Chain>
E1P5V4,Q76P87,Q86VB9,Q9H5A8

> <UniProt (SwissProt) Alternative ID(s) of Target Chain>


> <UniProt (TrEMBL) Submitted Name of Target Chain>


> <UniProt (TrEMBL) Entry Name of Target Chain>


> <UniProt (TrEMBL) Primary ID of Target Chain>


> <UniProt (TrEMBL) Secondary ID(s) of Target Chain>


> <UniProt (TrEMBL) Alternative ID(s) of Target Chain>


$$$$
6_7-dialkoxyquinoline-3-carbonitrile

Vconf v2.0 Academic SN VC001-00000579
 46 48  0  0  0  0  0  0  0  0999 V2000
    0.2520    2.1740    0.3030 C   0  0  0  0  0  0  0  0  0  0  0
    1.3360    0.0200   -0.0870 C   0  0  0  0  0  0  0  0  0  0  0
   -0.8050    0.0590    0.9370 C   0  0  0  0  0  0  0  0  0  0  0
   -0.8690    1.4730    0.8300 C   0  0  0  0  0  0  0  0  0  0  0
   -2.0370    2.1170    1.3010 C   0  0  0  0  0  0  0  0  0  0  0
   -3.0840    1.3940    1.8940 C   0  0  0  0  0  0  0  0  0  0  0
   -2.9810   -0.0060    2.0330 C   0  0  0  0  0  0  0  0  0  0  0
   -1.8520   -0.6700    1.5290 C   0  0  0  0  0  0  0  0  0  0  0
    0.2810   -0.6040    0.4780 N   0  0  0  0  0  0  0  0  0  0  0
    1.3550    1.4260   -0.1980 C   0  0  0  0  0  0  0  0  0  0  0
   -3.9590   -0.7320    2.6470 O   0  0  0  0  0  0  0  0  0  0  0
   -4.1620    2.0800    2.3570 O   0  0  0  0  0  0  0  0  0  0  0
    2.3920    1.9520   -0.7890 C   0  0  0  0  0  0  0  0  0  0  0
    3.3100    2.4060   -1.3110 N   0  0  0  0  0  0  0  0  0  0  0
    0.2000    3.5530    0.3730 N   0  0  0  0  0  0  0  0  0  0  0
    1.2610    4.3950    0.3450 C   0  0  0  0  0  0  0  0  0  0  0
    2.7190    5.9980   -0.7780 C   0  0  0  0  0  0  0  0  0  0  0
    1.5490    5.2110   -0.7680 C   0  0  0  0  0  0  0  0  0  0  0
    2.0880    4.4450    1.4820 C   0  0  0  0  0  0  0  0  0  0  0
    3.2340    5.2520    1.4840 C   0  0  0  0  0  0  0  0  0  0  0
   -5.4010    1.9580    1.6590 C   0  0  0  0  0  0  0  0  0  0  0
   -4.0630   -0.6600    4.0720 C   0  0  0  0  0  0  0  0  0  0  0
    3.5680    6.0060    0.3480 C   0  0  0  0  0  0  0  0  0  0  0
    3.0450    6.7720   -1.8460 O   0  0  0  0  0  0  0  0  0  0  0
    3.2560    6.1420   -3.1100 C   0  0  0  0  0  0  0  0  0  0  0
    4.7140    6.7360    0.3680 O   0  0  0  0  0  0  0  0  0  0  0
    5.8480    6.2150   -0.3310 C   0  0  0  0  0  0  0  0  0  0  0
    2.1200   -0.5430   -0.4220 H   0  0  0  0  0  0  0  0  0  0  0
   -2.1410    3.1290    1.2210 H   0  0  0  0  0  0  0  0  0  0  0
   -1.7850   -1.6850    1.6060 H   0  0  0  0  0  0  0  0  0  0  0
   -0.6370    3.9530    0.6470 H   0  0  0  0  0  0  0  0  0  0  0
    0.9180    5.2290   -1.5710 H   0  0  0  0  0  0  0  0  0  0  0
    1.8600    3.8870    2.3060 H   0  0  0  0  0  0  0  0  0  0  0
    3.8250    5.2860    2.3130 H   0  0  0  0  0  0  0  0  0  0  0
   -6.1550    2.5470    2.1810 H   0  0  0  0  0  0  0  0  0  0  0
   -5.3000    2.3400    0.6410 H   0  0  0  0  0  0  0  0  0  0  0
   -5.7250    0.9170    1.6280 H   0  0  0  0  0  0  0  0  0  0  0
   -4.8660   -1.3180    4.4050 H   0  0  0  0  0  0  0  0  0  0  0
   -3.1310   -0.9870    4.5350 H   0  0  0  0  0  0  0  0  0  0  0
   -4.2900    0.3580    4.3940 H   0  0  0  0  0  0  0  0  0  0  0
    3.5870    6.8920   -3.8290 H   0  0  0  0  0  0  0  0  0  0  0
    4.0280    5.3750   -3.0220 H   0  0  0  0  0  0  0  0  0  0  0
    2.3320    5.6890   -3.4700 H   0  0  0  0  0  0  0  0  0  0  0
    6.7000    6.8700   -0.1510 H   0  0  0  0  0  0  0  0  0  0  0
    6.0960    5.2130    0.0250 H   0  0  0  0  0  0  0  0  0  0  0
    5.6530    6.1780   -1.4040 H   0  0  0  0  0  0  0  0  0  0  0
  1  4  2  0  0  0  0
  1 10  1  0  0  0  0
  1 15  1  0  0  0  0
  2  9  1  0  0  0  0
  2 10  2  0  0  0  0
  2 28  1  0  0  0  0
  3  4  1  0  0  0  0
  3  8  1  0  0  0  0
  3  9  2  0  0  0  0
  4  5  1  0  0  0  0
  5  6  2  0  0  0  0
  5 29  1  0  0  0  0
  6  7  1  0  0  0  0
  6 12  1  0  0  0  0
  7  8  2  0  0  0  0
  7 11  1  0  0  0  0
  8 30  1  0  0  0  0
 10 13  1  0  0  0  0
 11 22  1  0  0  0  0
 12 21  1  0  0  0  0
 13 14  3  0  0  0  0
 15 16  1  0  0  0  0
 15 31  1  0  0  0  0
 16 18  2  0  0  0  0
 16 19  1  0  0  0  0
 17 18  1  0  0  0  0
 17 23  2  0  0  0  0
 17 24  1  0  0  0  0
 18 32  1  0  0  0  0
 19 20  2  0  0  0  0
 19 33  1  0  0  0  0
 20 23  1  0  0  0  0
 20 34  1  0  0  0  0
 21 35  1  0  0  0  0
 21 36  1  0  0  0  0
 21 37  1  0  0  0  0
 22 38  1  0  0  0  0
 22 39  1  0  0  0  0
 22 40  1  0  0  0  0
 23 26  1  0  0  0  0
 24 25  1  0  0  0  0
 25 41  1  0  0  0  0
 25 42  1  0  0  0  0
 25 43  1  0  0  0  0
 26 27  1  0  0  0  0
 27 44  1  0  0  0  0
 27 45  1  0  0  0  0
 27 46  1  0  0  0  0
M  END
> <From>
www.bindingDB.org

> <BindingDB Reactant_set_id>
6634

> <Ligand InChI>
InChI=1S/C20H19N3O4/c1-24-16-6-5-13(7-17(16)25-2)23-20-12(10-21)11-22-15-9-19(27-4)18(26-3)8-14(15)20/h5-9,11H,1-4H3,(H,22,23)

> <Ligand InChI Key>
PPNMPEHEXLGGID-UHFFFAOYSA-N

> <BindingDB MonomerID>
4448

> <BindingDB Ligand Name>
4-(3,4-Dimethoxyphenylamino)-6,7-dimethoxyquinoline-3-carbonitrile::4-Anilino-3-cyanoquinoline deriv. 7e::4-[(3,4-dimethoxyphenyl)amino]-6,7-dimethoxyquinoline-3-carbonitrile::6,7-dialkoxyquinoline-3-carbonitrile deriv. 11

> <Target Name Assigned by Curator or DataSource>
Epidermal growth factor receptor

> <Target Source Organism According to Curator or DataSource>
Homo sapiens

> <Ki (nM)>


> <IC50 (nM)>
 50490

> <Kd (nM)>


> <EC50 (nM)>


> <kon (M-1-s-1)>


> <koff (s-1)>


> <pH>
7.4

> <Temp C>
22.00

> <Curation/DataSource>
Curated from the literature by BindingDB

> <Article DOI>
10.1021/jm000206a

> <PMID>
10966743

> <PubChem AID>


> <Patent Number>


> <Authors>
Wissner, A; Berger, DM; Boschelli, DH; Floyd, MB; Greenberger, LM; Gruber, BC; Johnson, BD; Mamuya, N; Nilakantan, R; Reich, MF; Shen, R; Tsou, HR; Upeslacis, E; Wang, YF; Wu, B; Ye, F; Zhang, N

> <Institution>
Wyeth-Ayerst Research

> <Link to Ligand in BindingDB>
http://www.bindingdb.org/bind/chemsearch/marvin/MolStructure.jsp?monomerid=4448

> <Link to Ligand-Target Pair in BindingDB>
http://www.bindingdb.org/jsp/dbsearch/PrimarySearch_ki.jsp?energyterm=kJ/mole&tag=pol&polymerid=520&target=Epidermal+growth+factor+receptor&column=ki&startPg=0&Increment=50&submit=Search

> <Link to Ligand-Target Pair in BindingDB>
http://www.bindingdb.org/jsp/dbsearch/PrimarySearch_ki.jsp?energyterm=kJ/mole&tag=r21&monomerid=4448&enzyme=Epidermal+growth+factor+receptor&column=ki&startPg=0&Increment=50&submit=Search

> <Ligand HET ID in PDB>


> <PDB ID(s) for Ligand-Target Complex>


> <PubChem CID>
5328843

> <PubChem SID>
8034117

> <ChEBI ID of Ligand>


> <ChEMBL ID of Ligand>


> <DrugBank ID of Ligand>


> <IUPHAR_GRAC ID of Ligand>


> <KEGG ID of Ligand>


> <ZINC ID of Ligand>
ZINC03832365

> <Number of Protein Chains in Target (bigger than 1 a multichain complex)>
1

> <BindingDB Target Chain Sequence>
MRPSGTAGAALLALLAALCPASRALEEKKVCQGTSNKLTQLGTFEDHFLSLQRMFNNCEVVLGNLEITYVQRNYDLSFLKTIQEVAGYVLIALNTVERIPLENLQIIRGNMYYENSYALAVLSNYDANKTGLKELPMRNLQEILHGAVRFSNNPALCNVESIQWRDIVSSDFLSNMSMDFQNHLGSCQKCDPSCPNGSCWGAGEENCQKLTKIICAQQCSGRCRGKSPSDCCHNQCAAGCTGPRESDCLVCRKFRDEATCKDTCPPLMLYNPTTYQMDVNPEGKYSFGATCVKKCPRNYVVTDHGSCVRACGADSYEMEEDGVRKCKKCEGPCRKVCNGIGIGEFKDSLSINATNIKHFKNCTSISGDLHILPVAFRGDSFTHTPPLDPQELDILKTVKEITGFLLIQAWPENRTDLHAFENLEIIRGRTKQHGQFSLAVVSLNITSLGLRSLKEISDGDVIISGNKNLCYANTINWKKLFGTSGQKTKIISNRGENSCKATGQVCHALCSPEGCWGPEPRDCVSCRNVSRGRECVDKCNLLEGEPREFVENSECIQCHPECLPQAMNITCTGRGPDNCIQCAHYIDGPHCVKTCPAGVMGENNTLVWKYADAGHVCHLCHPNCTYGCTGPGLEGCPTNGPKIPSIATGMVGALLLLLVVALGIGLFMRRRHIVRKRTLRRLLQERELVEPLTPSGEAPNQALLRILKETEFKKIKVLGSGAFGTVYKGLWIPEGEKVKIPVAIKELREATSPKANKEILDEAYVMASVDNPHVCRLLGICLTSTVQLITQLMPFGCLLDYVREHKDNIGSQYLLNWCVQIAKGMNYLEDRRLVHRDLAARNVLVKTPQHVKITDFGLAKLLGAEEKEYHAEGGKVPIKWMALESILHRIYTHQSDVWSYGVTVWELMTFGSKPYDGIPASEISSILEKGERLPQPPICTIDVYMIMVKCWMIDADSRPKFRELIIEFSKMARDPQRYLVIQGDERMHLPSPTDSNFYRALMDEEDMDDVVDADEYLIPQQGFFSSPSTSRTPLLSSLSATSNNSTVACIDRNGLQSCPIKEDSFLQRYSSDPTGALTEDSIDDTFLPVPEYINQSVPKRPAGSVQNPVYHNQPLNPAPSRDPHYQDPHSTAVGNPEYLNTVQPTCVNSTFDSPAHWAQKGSHQISLDNPDYQQDFFPKEAKPNGIFKGSTAENAEYLRVAPQSSEFIGA

> <PDB ID(s) of Target Chain>
1IVO,1M14,1M17,1MOX,1XKK,1Z9I,2GS2,2GS6,2ITW,2ITX,2ITY,2J5E,2J5F,2J6M,2N5S,2RF9,2RGP,3B2V,3BEL,3GOP,3POZ,3QWQ,3VJO,3W2O,3W2P,3W2Q,3W2R,3W2S,3W32,3W33,4G5J,4I23,4JQ7,4JQ8,4JR3,4JRV,4KRO,4LI5,4RJ4,4RJ5,4RJ6,4RJ7,4RJ8,4TKS,4UIP,4UV7,4WKQ,4WRG,4ZAU,5C8K,5C8M,5C8N,5CAL,5CAN,5CAO,5CAP,5CAQ,5CAS,5CAU,5CAV,5EDP,5EDQ,5EDR,5EM5,5EM6,5EM7,5EM8,5FED,5GNK,5HCX,5HCY,5HCZ,5HIB,5HIC,5UGB,5WB7,5WB8,5Y25,6D8E,6JZ0,6S89,6S8A,6VH4,6VHN,6VHP

> <UniProt (SwissProt) Recommended Name of Target Chain>
Epidermal growth factor receptor

> <UniProt (SwissProt) Entry Name of Target Chain>
EGFR_HUMAN

> <UniProt (SwissProt) Primary ID of Target Chain>
P00533

> <UniProt (SwissProt) Secondary ID(s) of Target Chain>
O00688,O00732,P06268,Q14225,Q68GS5,Q92795,Q9BZS2,Q9GZX1,Q9H2C9,Q9H3C9,Q9UMD7,Q9UMD8,Q9UMG5

> <UniProt (SwissProt) Alternative ID(s) of Target Chain>


> <UniProt (TrEMBL) Submitted Name of Target Chain>


> <UniProt (TrEMBL) Entry Name of Target Chain>


> <UniProt (TrEMBL) Primary ID of Target Chain>


> <UniProt (TrEMBL) Secondary ID(s) of Target Chain>


> <UniProt (TrEMBL) Alternative ID(s) of Target Chain>


$$$$
6_7-dialkoxyquinoline-3-carbonitrile

Vconf v2.0 Academic SN VC001-00000579
 38 40  0  0  0  0  0  0  0  0999 V2000
    0.2560    2.2010    0.2910 C   0  0  0  0  0  0  0  0  0  0  0
    1.3480    0.0410   -0.0540 C   0  0  0  0  0  0  0  0  0  0  0
   -0.7730    0.0990    1.0080 C   0  0  0  0  0  0  0  0  0  0  0
   -0.8220    1.5160    0.9190 C   0  0  0  0  0  0  0  0  0  0  0
   -1.9750    2.1670    1.4190 C   0  0  0  0  0  0  0  0  0  0  0
   -3.0380    1.4380    1.9800 C   0  0  0  0  0  0  0  0  0  0  0
   -2.9530    0.0370    2.0850 C   0  0  0  0  0  0  0  0  0  0  0
   -1.8240   -0.6310    1.5860 C   0  0  0  0  0  0  0  0  0  0  0
    0.2930   -0.5730    0.5240 N   0  0  0  0  0  0  0  0  0  0  0
    1.3690    1.4410   -0.1820 C   0  0  0  0  0  0  0  0  0  0  0
   -3.9470   -0.6910    2.6580 O   0  0  0  0  0  0  0  0  0  0  0
   -4.1390    2.1040    2.4160 O   0  0  0  0  0  0  0  0  0  0  0
    2.4390    1.9550   -0.7260 C   0  0  0  0  0  0  0  0  0  0  0
    3.3840    2.3980   -1.2050 N   0  0  0  0  0  0  0  0  0  0  0
    0.1160    3.5630    0.1340 N   0  0  0  0  0  0  0  0  0  0  0
    0.7860    4.3430   -0.7520 C   0  0  0  0  0  0  0  0  0  0  0
    1.2840    4.9310   -3.0680 C   0  0  0  0  0  0  0  0  0  0  0
    0.5340    4.1990   -2.1350 C   0  0  0  0  0  0  0  0  0  0  0
    1.7400    5.2830   -0.3130 C   0  0  0  0  0  0  0  0  0  0  0
    2.4870    6.0170   -1.2500 C   0  0  0  0  0  0  0  0  0  0  0
   -5.2660    2.1730    1.5380 C   0  0  0  0  0  0  0  0  0  0  0
   -4.0250   -0.6950    4.0850 C   0  0  0  0  0  0  0  0  0  0  0
    2.2730    5.8300   -2.6300 C   0  0  0  0  0  0  0  0  0  0  0
    3.1990    6.6750   -3.7640 Cl  0  0  0  0  0  0  0  0  0  0  0
   -0.3850    3.3820   -2.5740 F   0  0  0  0  0  0  0  0  0  0  0
    2.1190   -0.5380   -0.3990 H   0  0  0  0  0  0  0  0  0  0  0
   -2.0630    3.1810    1.3750 H   0  0  0  0  0  0  0  0  0  0  0
   -1.7710   -1.6480    1.6440 H   0  0  0  0  0  0  0  0  0  0  0
   -0.6290    3.9860    0.5840 H   0  0  0  0  0  0  0  0  0  0  0
    1.1030    4.8010   -4.0640 H   0  0  0  0  0  0  0  0  0  0  0
    1.9100    5.4250    0.6840 H   0  0  0  0  0  0  0  0  0  0  0
    3.1870    6.6840   -0.9210 H   0  0  0  0  0  0  0  0  0  0  0
   -6.0750    2.7010    2.0430 H   0  0  0  0  0  0  0  0  0  0  0
   -5.0080    2.7150    0.6260 H   0  0  0  0  0  0  0  0  0  0  0
   -5.6080    1.1690    1.2780 H   0  0  0  0  0  0  0  0  0  0  0
   -4.8290   -1.3640    4.3930 H   0  0  0  0  0  0  0  0  0  0  0
   -3.0870   -1.0510    4.5140 H   0  0  0  0  0  0  0  0  0  0  0
   -4.2380    0.3090    4.4590 H   0  0  0  0  0  0  0  0  0  0  0
  1  4  2  0  0  0  0
  1 10  1  0  0  0  0
  1 15  1  0  0  0  0
  2  9  1  0  0  0  0
  2 10  2  0  0  0  0
  2 26  1  0  0  0  0
  3  4  1  0  0  0  0
  3  8  1  0  0  0  0
  3  9  2  0  0  0  0
  4  5  1  0  0  0  0
  5  6  2  0  0  0  0
  5 27  1  0  0  0  0
  6  7  1  0  0  0  0
  6 12  1  0  0  0  0
  7  8  2  0  0  0  0
  7 11  1  0  0  0  0
  8 28  1  0  0  0  0
 10 13  1  0  0  0  0
 11 22  1  0  0  0  0
 12 21  1  0  0  0  0
 13 14  3  0  0  0  0
 15 16  1  0  0  0  0
 15 29  1  0  0  0  0
 16 18  2  0  0  0  0
 16 19  1  0  0  0  0
 17 18  1  0  0  0  0
 17 23  2  0  0  0  0
 17 30  1  0  0  0  0
 18 25  1  0  0  0  0
 19 20  2  0  0  0  0
 19 31  1  0  0  0  0
 20 23  1  0  0  0  0
 20 32  1  0  0  0  0
 21 33  1  0  0  0  0
 21 34  1  0  0  0  0
 21 35  1  0  0  0  0
 22 36  1  0  0  0  0
 22 37  1  0  0  0  0
 22 38  1  0  0  0  0
 23 24  1  0  0  0  0
M  END
> <From>
www.bindingDB.org

> <BindingDB Reactant_set_id>
6643

> <Ligand InChI>
InChI=1S/C18H13ClFN3O2/c1-24-16-6-12-15(7-17(16)25-2)22-9-10(8-21)18(12)23-14-4-3-11(19)5-13(14)20/h3-7,9H,1-2H3,(H,22,23)

> <Ligand InChI Key>
AZGVCABJHURYHG-UHFFFAOYSA-N

> <BindingDB MonomerID>
4457

> <BindingDB Ligand Name>
4-(4-Chloro-2-fluorophenylamino)-6,7-dimethoxyquinoline-3-carbonitrile::4-Phenylamino-3-quinolinecarbonitrile deriv. 2r::4-[(4-chloro-2-fluorophenyl)amino]-6,7-dimethoxyquinoline-3-carbonitrile::6,7-dialkoxyquinoline-3-carbonitrile deriv. 20

> <Target Name Assigned by Curator or DataSource>
Epidermal growth factor receptor

> <Target Source Organism According to Curator or DataSource>
Homo sapiens

> <Ki (nM)>


> <IC50 (nM)>
 13850

> <Kd (nM)>


> <EC50 (nM)>


> <kon (M-1-s-1)>


> <koff (s-1)>


> <pH>
7.4

> <Temp C>
22.00

> <Curation/DataSource>
Curated from the literature by BindingDB

> <Article DOI>
10.1021/jm000206a

> <PMID>
10966743

> <PubChem AID>


> <Patent Number>


> <Authors>
Wissner, A; Berger, DM; Boschelli, DH; Floyd, MB; Greenberger, LM; Gruber, BC; Johnson, BD; Mamuya, N; Nilakantan, R; Reich, MF; Shen, R; Tsou, HR; Upeslacis, E; Wang, YF; Wu, B; Ye, F; Zhang, N

> <Institution>
Wyeth-Ayerst Research

> <Link to Ligand in BindingDB>
http://www.bindingdb.org/bind/chemsearch/marvin/MolStructure.jsp?monomerid=4457

> <Link to Ligand-Target Pair in BindingDB>
http://www.bindingdb.org/jsp/dbsearch/PrimarySearch_ki.jsp?energyterm=kJ/mole&tag=pol&polymerid=520&target=Epidermal+growth+factor+receptor&column=ki&startPg=0&Increment=50&submit=Search

> <Link to Ligand-Target Pair in BindingDB>
http://www.bindingdb.org/jsp/dbsearch/PrimarySearch_ki.jsp?energyterm=kJ/mole&tag=r21&monomerid=4457&enzyme=Epidermal+growth+factor+receptor&column=ki&startPg=0&Increment=50&submit=Search

> <Ligand HET ID in PDB>


> <PDB ID(s) for Ligand-Target Complex>


> <PubChem CID>
5328852

> <PubChem SID>
8034126

> <ChEBI ID of Ligand>


> <ChEMBL ID of Ligand>


> <DrugBank ID of Ligand>


> <IUPHAR_GRAC ID of Ligand>


> <KEGG ID of Ligand>


> <ZINC ID of Ligand>
ZINC13812938

> <Number of Protein Chains in Target (bigger than 1 a multichain complex)>
1

> <BindingDB Target Chain Sequence>
MRPSGTAGAALLALLAALCPASRALEEKKVCQGTSNKLTQLGTFEDHFLSLQRMFNNCEVVLGNLEITYVQRNYDLSFLKTIQEVAGYVLIALNTVERIPLENLQIIRGNMYYENSYALAVLSNYDANKTGLKELPMRNLQEILHGAVRFSNNPALCNVESIQWRDIVSSDFLSNMSMDFQNHLGSCQKCDPSCPNGSCWGAGEENCQKLTKIICAQQCSGRCRGKSPSDCCHNQCAAGCTGPRESDCLVCRKFRDEATCKDTCPPLMLYNPTTYQMDVNPEGKYSFGATCVKKCPRNYVVTDHGSCVRACGADSYEMEEDGVRKCKKCEGPCRKVCNGIGIGEFKDSLSINATNIKHFKNCTSISGDLHILPVAFRGDSFTHTPPLDPQELDILKTVKEITGFLLIQAWPENRTDLHAFENLEIIRGRTKQHGQFSLAVVSLNITSLGLRSLKEISDGDVIISGNKNLCYANTINWKKLFGTSGQKTKIISNRGENSCKATGQVCHALCSPEGCWGPEPRDCVSCRNVSRGRECVDKCNLLEGEPREFVENSECIQCHPECLPQAMNITCTGRGPDNCIQCAHYIDGPHCVKTCPAGVMGENNTLVWKYADAGHVCHLCHPNCTYGCTGPGLEGCPTNGPKIPSIATGMVGALLLLLVVALGIGLFMRRRHIVRKRTLRRLLQERELVEPLTPSGEAPNQALLRILKETEFKKIKVLGSGAFGTVYKGLWIPEGEKVKIPVAIKELREATSPKANKEILDEAYVMASVDNPHVCRLLGICLTSTVQLITQLMPFGCLLDYVREHKDNIGSQYLLNWCVQIAKGMNYLEDRRLVHRDLAARNVLVKTPQHVKITDFGLAKLLGAEEKEYHAEGGKVPIKWMALESILHRIYTHQSDVWSYGVTVWELMTFGSKPYDGIPASEISSILEKGERLPQPPICTIDVYMIMVKCWMIDADSRPKFRELIIEFSKMARDPQRYLVIQGDERMHLPSPTDSNFYRALMDEEDMDDVVDADEYLIPQQGFFSSPSTSRTPLLSSLSATSNNSTVACIDRNGLQSCPIKEDSFLQRYSSDPTGALTEDSIDDTFLPVPEYINQSVPKRPAGSVQNPVYHNQPLNPAPSRDPHYQDPHSTAVGNPEYLNTVQPTCVNSTFDSPAHWAQKGSHQISLDNPDYQQDFFPKEAKPNGIFKGSTAENAEYLRVAPQSSEFIGA

> <PDB ID(s) of Target Chain>
1IVO,1M14,1M17,1MOX,1XKK,1Z9I,2GS2,2GS6,2ITW,2ITX,2ITY,2J5E,2J5F,2J6M,2N5S,2RF9,2RGP,3B2V,3BEL,3GOP,3POZ,3QWQ,3VJO,3W2O,3W2P,3W2Q,3W2R,3W2S,3W32,3W33,4G5J,4I23,4JQ7,4JQ8,4JR3,4JRV,4KRO,4LI5,4RJ4,4RJ5,4RJ6,4RJ7,4RJ8,4TKS,4UIP,4UV7,4WKQ,4WRG,4ZAU,5C8K,5C8M,5C8N,5CAL,5CAN,5CAO,5CAP,5CAQ,5CAS,5CAU,5CAV,5EDP,5EDQ,5EDR,5EM5,5EM6,5EM7,5EM8,5FED,5GNK,5HCX,5HCY,5HCZ,5HIB,5HIC,5UGB,5WB7,5WB8,5Y25,6D8E,6JZ0,6S89,6S8A,6VH4,6VHN,6VHP

> <UniProt (SwissProt) Recommended Name of Target Chain>
Epidermal growth factor receptor

> <UniProt (SwissProt) Entry Name of Target Chain>
EGFR_HUMAN

> <UniProt (SwissProt) Primary ID of Target Chain>
P00533

> <UniProt (SwissProt) Secondary ID(s) of Target Chain>
O00688,O00732,P06268,Q14225,Q68GS5,Q92795,Q9BZS2,Q9GZX1,Q9H2C9,Q9H3C9,Q9UMD7,Q9UMD8,Q9UMG5

> <UniProt (SwissProt) Alternative ID(s) of Target Chain>


> <UniProt (TrEMBL) Submitted Name of Target Chain>


> <UniProt (TrEMBL) Entry Name of Target Chain>


> <UniProt (TrEMBL) Primary ID of Target Chain>


> <UniProt (TrEMBL) Secondary ID(s) of Target Chain>


> <UniProt (TrEMBL) Alternative ID(s) of Target Chain>


$$$$
6_7-Dimethoxyquinoline

Vconf v2.0 Academic SN VC001-00000579
 38 40  0  0  0  0  0  0  0  0999 V2000
   -1.4490    2.8560    1.2350 C   0  0  0  0  0  0  0  0  0  0  0
   -2.6230    2.5320    0.5290 C   0  0  0  0  0  0  0  0  0  0  0
   -2.9660    1.1800    0.3210 C   0  0  0  0  0  0  0  0  0  0  0
   -2.1110    0.1680    0.7770 C   0  0  0  0  0  0  0  0  0  0  0
   -0.5820    1.8480    1.7210 C   0  0  0  0  0  0  0  0  0  0  0
   -0.9310    0.4960    1.4630 C   0  0  0  0  0  0  0  0  0  0  0
    0.6010    2.1240    2.4610 C   0  0  0  0  0  0  0  0  0  0  0
    1.0120   -0.2870    2.5690 C   0  0  0  0  0  0  0  0  0  0  0
    1.4150    1.0270    2.8720 C   0  0  0  0  0  0  0  0  0  0  0
   -0.1330   -0.5080    1.8900 N   0  0  0  0  0  0  0  0  0  0  0
    2.5430    1.1400    3.5100 C   0  0  0  0  0  0  0  0  0  0  0
    3.5400    1.2270    4.0740 N   0  0  0  0  0  0  0  0  0  0  0
    0.8560    3.4490    2.7420 N   0  0  0  0  0  0  0  0  0  0  0
    1.8250    3.9480    3.5500 C   0  0  0  0  0  0  0  0  0  0  0
    2.7190    4.4910    5.7560 C   0  0  0  0  0  0  0  0  0  0  0
    1.6580    4.0300    4.9510 C   0  0  0  0  0  0  0  0  0  0  0
    3.0300    4.3810    2.9660 C   0  0  0  0  0  0  0  0  0  0  0
    4.0850    4.8430    3.7710 C   0  0  0  0  0  0  0  0  0  0  0
    3.9360    4.8870    5.1700 C   0  0  0  0  0  0  0  0  0  0  0
    0.2070    3.5610    5.6950 Cl  0  0  0  0  0  0  0  0  0  0  0
    5.2120    5.4160    6.1460 Cl  0  0  0  0  0  0  0  0  0  0  0
   -4.1110    0.8250   -0.3200 O   0  0  0  0  0  0  0  0  0  0  0
   -5.3370    0.9250    0.4080 C   0  0  0  0  0  0  0  0  0  0  0
   -3.4170    3.5390    0.0770 O   0  0  0  0  0  0  0  0  0  0  0
   -3.5180    3.7460   -1.3350 C   0  0  0  0  0  0  0  0  0  0  0
   -1.2330    3.8420    1.3850 H   0  0  0  0  0  0  0  0  0  0  0
   -2.3550   -0.8110    0.6210 H   0  0  0  0  0  0  0  0  0  0  0
    1.5760   -1.0930    2.8520 H   0  0  0  0  0  0  0  0  0  0  0
    0.2490    4.1030    2.3640 H   0  0  0  0  0  0  0  0  0  0  0
    2.6110    4.5320    6.7720 H   0  0  0  0  0  0  0  0  0  0  0
    3.1520    4.3330    1.9540 H   0  0  0  0  0  0  0  0  0  0  0
    4.9620    5.1250    3.3320 H   0  0  0  0  0  0  0  0  0  0  0
   -6.1540    0.5780   -0.2230 H   0  0  0  0  0  0  0  0  0  0  0
   -5.2970    0.3010    1.3030 H   0  0  0  0  0  0  0  0  0  0  0
   -5.5280    1.9600    0.6950 H   0  0  0  0  0  0  0  0  0  0  0
   -4.2020    4.5730   -1.5250 H   0  0  0  0  0  0  0  0  0  0  0
   -2.5380    3.9980   -1.7440 H   0  0  0  0  0  0  0  0  0  0  0
   -3.9000    2.8540   -1.8350 H   0  0  0  0  0  0  0  0  0  0  0
  1  2  1  0  0  0  0
  1  5  2  0  0  0  0
  1 26  1  0  0  0  0
  2  3  2  0  0  0  0
  2 24  1  0  0  0  0
  3  4  1  0  0  0  0
  3 22  1  0  0  0  0
  4  6  2  0  0  0  0
  4 27  1  0  0  0  0
  5  6  1  0  0  0  0
  5  7  1  0  0  0  0
  6 10  1  0  0  0  0
  7  9  2  0  0  0  0
  7 13  1  0  0  0  0
  8  9  1  0  0  0  0
  8 10  2  0  0  0  0
  8 28  1  0  0  0  0
  9 11  1  0  0  0  0
 11 12  3  0  0  0  0
 13 14  1  0  0  0  0
 13 29  1  0  0  0  0
 14 16  2  0  0  0  0
 14 17  1  0  0  0  0
 15 16  1  0  0  0  0
 15 19  2  0  0  0  0
 15 30  1  0  0  0  0
 16 20  1  0  0  0  0
 17 18  2  0  0  0  0
 17 31  1  0  0  0  0
 18 19  1  0  0  0  0
 18 32  1  0  0  0  0
 19 21  1  0  0  0  0
 22 23  1  0  0  0  0
 23 33  1  0  0  0  0
 23 34  1  0  0  0  0
 23 35  1  0  0  0  0
 24 25  1  0  0  0  0
 25 36  1  0  0  0  0
 25 37  1  0  0  0  0
 25 38  1  0  0  0  0
M  END
> <From>
www.bindingDB.org

> <BindingDB Reactant_set_id>
50198033

> <Ligand InChI>
InChI=1S/C18H13Cl2N3O2/c1-24-16-6-12-15(7-17(16)25-2)22-9-10(8-21)18(12)23-14-4-3-11(19)5-13(14)20/h3-7,9H,1-2H3,(H,22,23)

> <Ligand InChI Key>
IUZCVUGIDCZCEQ-UHFFFAOYSA-N

> <BindingDB MonomerID>
4492

> <BindingDB Ligand Name>
4-[(2,4-Dichlorophenyl)amino]-6,7-dimethoxy-3-quinolinecarbonitrile::4-[(2,4-dichlorophenyl)amino]-6,7-dimethoxyquinoline-3-carbonitrile::6,7-Dimethoxyquinoline deriv. 2a::CHEMBL101917

> <Target Name Assigned by Curator or DataSource>
Proto-oncogene tyrosine-protein kinase Src

> <Target Source Organism According to Curator or DataSource>


> <Ki (nM)>


> <IC50 (nM)>
 38

> <Kd (nM)>


> <EC50 (nM)>


> <kon (M-1-s-1)>


> <koff (s-1)>


> <pH>


> <Temp C>


> <Curation/DataSource>
ChEMBL

> <Article DOI>
10.1016/s0960-894x(01)00776-4

> <PMID>
11814812

> <PubChem AID>


> <Patent Number>


> <Authors>
Zhang, N; Wu, B; Wissner, A; Powell, DW; Rabindran, SK; Kohler, C; Boschelli, F

> <Institution>
Wyeth-Ayerst Research

> <Link to Ligand in BindingDB>
http://www.bindingdb.org/bind/chemsearch/marvin/MolStructure.jsp?monomerid=4492

> <Link to Ligand-Target Pair in BindingDB>
http://www.bindingdb.org/jsp/dbsearch/PrimarySearch_ki.jsp?energyterm=kJ/mole&tag=pol&polymerid=13&target=Proto-oncogene+tyrosine-protein+kinase+Src&column=ki&startPg=0&Increment=50&submit=Search

> <Link to Ligand-Target Pair in BindingDB>
http://www.bindingdb.org/jsp/dbsearch/PrimarySearch_ki.jsp?energyterm=kJ/mole&tag=r21&monomerid=4492&enzyme=Proto-oncogene+tyrosine-protein+kinase+Src&column=ki&startPg=0&Increment=50&submit=Search

> <Ligand HET ID in PDB>


> <PDB ID(s) for Ligand-Target Complex>


> <PubChem CID>
5328887

> <PubChem SID>
8034161

> <ChEBI ID of Ligand>


> <ChEMBL ID of Ligand>
CHEMBL101917

> <DrugBank ID of Ligand>


> <IUPHAR_GRAC ID of Ligand>


> <KEGG ID of Ligand>


> <ZINC ID of Ligand>
ZINC13470095

> <Number of Protein Chains in Target (bigger than 1 a multichain complex)>
1

> <BindingDB Target Chain Sequence>
MGSNKSKPKDASQRRRSLEPAENVHGAGGGAFPASQTPSKPASADGHRGPSAAFAPAAAEPKLFGGFNSSDTVTSPQRAGPLAGGVTTFVALYDYESRTETDLSFKKGERLQIVNNTEGDWWLAHSLSTGQTGYIPSNYVAPSDSIQAEEWYFGKITRRESERLLLNAENPRGTFLVRESETTKGAYCLSVSDFDNAKGLNVKHYKIRKLDSGGFYITSRTQFNSLQQLVAYYSKHADGLCHRLTTVCPTSKPQTQGLAKDAWEIPRESLRLEVKLGQGCFGEVWMGTWNGTTRVAIKTLKPGTMSPEAFLQEAQVMKKLRHEKLVQLYAVVSEEPIYIVTEYMSKGSLLDFLKGETGKYLRLPQLVDMAAQIASGMAYVERMNYVHRDLRAANILVGENLVCKVADFGLARLIEDNEYTARQGAKFPIKWTAPEAALYGRFTIKSDVWSFGILLTELTTKGRVPYPGMVNREVLDQVERGYRMPCPPECPESLHDLMCQCWRKEPEERPTFEYLQAFLEDYFTSTEPQYQPGENL

> <PDB ID(s) of Target Chain>
1FMK,1HCS,1HCT,1O41,1O42,1O43,1O44,1O45,1O46,1O47,1O48,1O49,1O4A,1O4B,1O4C,1O4D,1O4E,1O4F,1O4G,1O4H,1O4I,1O4J,1O4K,1O4L,1O4M,1O4N,1O4O,1O4P,1O4Q,1O4R,1SHA,1SHB,1SHD,1SPR,1SPS,1Y57,1YI6,2BDF,2BDJ,2H8H,2PTK,2SRC,4MXO,4MXX,4OML,4OMO,5OB0,5OB1,6ATE,6E6E

> <UniProt (SwissProt) Recommended Name of Target Chain>
Proto-oncogene tyrosine-protein kinase Src

> <UniProt (SwissProt) Entry Name of Target Chain>
SRC_HUMAN

> <UniProt (SwissProt) Primary ID of Target Chain>
P12931

> <UniProt (SwissProt) Secondary ID(s) of Target Chain>
E1P5V4,Q76P87,Q86VB9,Q9H5A8

> <UniProt (SwissProt) Alternative ID(s) of Target Chain>


> <UniProt (TrEMBL) Submitted Name of Target Chain>


> <UniProt (TrEMBL) Entry Name of Target Chain>


> <UniProt (TrEMBL) Primary ID of Target Chain>


> <UniProt (TrEMBL) Secondary ID(s) of Target Chain>


> <UniProt (TrEMBL) Alternative ID(s) of Target Chain>


$$$$
6_7-Dimethoxyquinoline

Vconf v2.0 Academic SN VC001-00000579
 38 40  0  0  0  0  0  0  0  0999 V2000
   -1.4490    2.8560    1.2350 C   0  0  0  0  0  0  0  0  0  0  0
   -2.6230    2.5320    0.5290 C   0  0  0  0  0  0  0  0  0  0  0
   -2.9660    1.1800    0.3210 C   0  0  0  0  0  0  0  0  0  0  0
   -2.1110    0.1680    0.7770 C   0  0  0  0  0  0  0  0  0  0  0
   -0.5820    1.8480    1.7210 C   0  0  0  0  0  0  0  0  0  0  0
   -0.9310    0.4960    1.4630 C   0  0  0  0  0  0  0  0  0  0  0
    0.6010    2.1240    2.4610 C   0  0  0  0  0  0  0  0  0  0  0
    1.0120   -0.2870    2.5690 C   0  0  0  0  0  0  0  0  0  0  0
    1.4150    1.0270    2.8720 C   0  0  0  0  0  0  0  0  0  0  0
   -0.1330   -0.5080    1.8900 N   0  0  0  0  0  0  0  0  0  0  0
    2.5430    1.1400    3.5100 C   0  0  0  0  0  0  0  0  0  0  0
    3.5400    1.2270    4.0740 N   0  0  0  0  0  0  0  0  0  0  0
    0.8560    3.4490    2.7420 N   0  0  0  0  0  0  0  0  0  0  0
    1.8250    3.9480    3.5500 C   0  0  0  0  0  0  0  0  0  0  0
    2.7190    4.4910    5.7560 C   0  0  0  0  0  0  0  0  0  0  0
    1.6580    4.0300    4.9510 C   0  0  0  0  0  0  0  0  0  0  0
    3.0300    4.3810    2.9660 C   0  0  0  0  0  0  0  0  0  0  0
    4.0850    4.8430    3.7710 C   0  0  0  0  0  0  0  0  0  0  0
    3.9360    4.8870    5.1700 C   0  0  0  0  0  0  0  0  0  0  0
    0.2070    3.5610    5.6950 Cl  0  0  0  0  0  0  0  0  0  0  0
    5.2120    5.4160    6.1460 Cl  0  0  0  0  0  0  0  0  0  0  0
   -4.1110    0.8250   -0.3200 O   0  0  0  0  0  0  0  0  0  0  0
   -5.3370    0.9250    0.4080 C   0  0  0  0  0  0  0  0  0  0  0
   -3.4170    3.5390    0.0770 O   0  0  0  0  0  0  0  0  0  0  0
   -3.5180    3.7460   -1.3350 C   0  0  0  0  0  0  0  0  0  0  0
   -1.2330    3.8420    1.3850 H   0  0  0  0  0  0  0  0  0  0  0
   -2.3550   -0.8110    0.6210 H   0  0  0  0  0  0  0  0  0  0  0
    1.5760   -1.0930    2.8520 H   0  0  0  0  0  0  0  0  0  0  0
    0.2490    4.1030    2.3640 H   0  0  0  0  0  0  0  0  0  0  0
    2.6110    4.5320    6.7720 H   0  0  0  0  0  0  0  0  0  0  0
    3.1520    4.3330    1.9540 H   0  0  0  0  0  0  0  0  0  0  0
    4.9620    5.1250    3.3320 H   0  0  0  0  0  0  0  0  0  0  0
   -6.1540    0.5780   -0.2230 H   0  0  0  0  0  0  0  0  0  0  0
   -5.2970    0.3010    1.3030 H   0  0  0  0  0  0  0  0  0  0  0
   -5.5280    1.9600    0.6950 H   0  0  0  0  0  0  0  0  0  0  0
   -4.2020    4.5730   -1.5250 H   0  0  0  0  0  0  0  0  0  0  0
   -2.5380    3.9980   -1.7440 H   0  0  0  0  0  0  0  0  0  0  0
   -3.9000    2.8540   -1.8350 H   0  0  0  0  0  0  0  0  0  0  0
  1  2  1  0  0  0  0
  1  5  2  0  0  0  0
  1 26  1  0  0  0  0
  2  3  2  0  0  0  0
  2 24  1  0  0  0  0
  3  4  1  0  0  0  0
  3 22  1  0  0  0  0
  4  6  2  0  0  0  0
  4 27  1  0  0  0  0
  5  6  1  0  0  0  0
  5  7  1  0  0  0  0
  6 10  1  0  0  0  0
  7  9  2  0  0  0  0
  7 13  1  0  0  0  0
  8  9  1  0  0  0  0
  8 10  2  0  0  0  0
  8 28  1  0  0  0  0
  9 11  1  0  0  0  0
 11 12  3  0  0  0  0
 13 14  1  0  0  0  0
 13 29  1  0  0  0  0
 14 16  2  0  0  0  0
 14 17  1  0  0  0  0
 15 16  1  0  0  0  0
 15 19  2  0  0  0  0
 15 30  1  0  0  0  0
 16 20  1  0  0  0  0
 17 18  2  0  0  0  0
 17 31  1  0  0  0  0
 18 19  1  0  0  0  0
 18 32  1  0  0  0  0
 19 21  1  0  0  0  0
 22 23  1  0  0  0  0
 23 33  1  0  0  0  0
 23 34  1  0  0  0  0
 23 35  1  0  0  0  0
 24 25  1  0  0  0  0
 25 36  1  0  0  0  0
 25 37  1  0  0  0  0
 25 38  1  0  0  0  0
M  END
> <From>
www.bindingDB.org

> <BindingDB Reactant_set_id>
50241026

> <Ligand InChI>
InChI=1S/C18H13Cl2N3O2/c1-24-16-6-12-15(7-17(16)25-2)22-9-10(8-21)18(12)23-14-4-3-11(19)5-13(14)20/h3-7,9H,1-2H3,(H,22,23)

> <Ligand InChI Key>
IUZCVUGIDCZCEQ-UHFFFAOYSA-N

> <BindingDB MonomerID>
4492

> <BindingDB Ligand Name>
4-[(2,4-Dichlorophenyl)amino]-6,7-dimethoxy-3-quinolinecarbonitrile::4-[(2,4-dichlorophenyl)amino]-6,7-dimethoxyquinoline-3-carbonitrile::6,7-Dimethoxyquinoline deriv. 2a::CHEMBL101917

> <Target Name Assigned by Curator or DataSource>
Proto-oncogene tyrosine-protein kinase Src

> <Target Source Organism According to Curator or DataSource>


> <Ki (nM)>


> <IC50 (nM)>
 4.3

> <Kd (nM)>


> <EC50 (nM)>


> <kon (M-1-s-1)>


> <koff (s-1)>


> <pH>


> <Temp C>


> <Curation/DataSource>
ChEMBL

> <Article DOI>
10.1016/s0960-894x(03)00628-0

> <PMID>
12941315

> <PubChem AID>


> <Patent Number>


> <Authors>
Boschelli, DH; Powell, D; Golas, JM; Boschelli, F

> <Institution>
Wyeth Research

> <Link to Ligand in BindingDB>
http://www.bindingdb.org/bind/chemsearch/marvin/MolStructure.jsp?monomerid=4492

> <Link to Ligand-Target Pair in BindingDB>
http://www.bindingdb.org/jsp/dbsearch/PrimarySearch_ki.jsp?energyterm=kJ/mole&tag=pol&polymerid=13&target=Proto-oncogene+tyrosine-protein+kinase+Src&column=ki&startPg=0&Increment=50&submit=Search

> <Link to Ligand-Target Pair in BindingDB>
http://www.bindingdb.org/jsp/dbsearch/PrimarySearch_ki.jsp?energyterm=kJ/mole&tag=r21&monomerid=4492&enzyme=Proto-oncogene+tyrosine-protein+kinase+Src&column=ki&startPg=0&Increment=50&submit=Search

> <Ligand HET ID in PDB>


> <PDB ID(s) for Ligand-Target Complex>


> <PubChem CID>
5328887

> <PubChem SID>
8034161

> <ChEBI ID of Ligand>


> <ChEMBL ID of Ligand>
CHEMBL101917

> <DrugBank ID of Ligand>


> <IUPHAR_GRAC ID of Ligand>


> <KEGG ID of Ligand>


> <ZINC ID of Ligand>
ZINC13470095

> <Number of Protein Chains in Target (bigger than 1 a multichain complex)>
1

> <BindingDB Target Chain Sequence>
MGSNKSKPKDASQRRRSLEPAENVHGAGGGAFPASQTPSKPASADGHRGPSAAFAPAAAEPKLFGGFNSSDTVTSPQRAGPLAGGVTTFVALYDYESRTETDLSFKKGERLQIVNNTEGDWWLAHSLSTGQTGYIPSNYVAPSDSIQAEEWYFGKITRRESERLLLNAENPRGTFLVRESETTKGAYCLSVSDFDNAKGLNVKHYKIRKLDSGGFYITSRTQFNSLQQLVAYYSKHADGLCHRLTTVCPTSKPQTQGLAKDAWEIPRESLRLEVKLGQGCFGEVWMGTWNGTTRVAIKTLKPGTMSPEAFLQEAQVMKKLRHEKLVQLYAVVSEEPIYIVTEYMSKGSLLDFLKGETGKYLRLPQLVDMAAQIASGMAYVERMNYVHRDLRAANILVGENLVCKVADFGLARLIEDNEYTARQGAKFPIKWTAPEAALYGRFTIKSDVWSFGILLTELTTKGRVPYPGMVNREVLDQVERGYRMPCPPECPESLHDLMCQCWRKEPEERPTFEYLQAFLEDYFTSTEPQYQPGENL

> <PDB ID(s) of Target Chain>
1FMK,1HCS,1HCT,1O41,1O42,1O43,1O44,1O45,1O46,1O47,1O48,1O49,1O4A,1O4B,1O4C,1O4D,1O4E,1O4F,1O4G,1O4H,1O4I,1O4J,1O4K,1O4L,1O4M,1O4N,1O4O,1O4P,1O4Q,1O4R,1SHA,1SHB,1SHD,1SPR,1SPS,1Y57,1YI6,2BDF,2BDJ,2H8H,2PTK,2SRC,4MXO,4MXX,4OML,4OMO,5OB0,5OB1,6ATE,6E6E

> <UniProt (SwissProt) Recommended Name of Target Chain>
Proto-oncogene tyrosine-protein kinase Src

> <UniProt (SwissProt) Entry Name of Target Chain>
SRC_HUMAN

> <UniProt (SwissProt) Primary ID of Target Chain>
P12931

> <UniProt (SwissProt) Secondary ID(s) of Target Chain>
E1P5V4,Q76P87,Q86VB9,Q9H5A8

> <UniProt (SwissProt) Alternative ID(s) of Target Chain>


> <UniProt (TrEMBL) Submitted Name of Target Chain>


> <UniProt (TrEMBL) Entry Name of Target Chain>


> <UniProt (TrEMBL) Primary ID of Target Chain>


> <UniProt (TrEMBL) Secondary ID(s) of Target Chain>


> <UniProt (TrEMBL) Alternative ID(s) of Target Chain>


$$$$
6_7-dialkoxyquinoline-3-carbonitrile

Vconf v2.0 Academic SN VC001-00000579
 46 48  0  0  0  0  0  0  0  0999 V2000
    0.2520    2.1740    0.3030 C   0  0  0  0  0  0  0  0  0  0  0
    1.3360    0.0200   -0.0870 C   0  0  0  0  0  0  0  0  0  0  0
   -0.8050    0.0590    0.9370 C   0  0  0  0  0  0  0  0  0  0  0
   -0.8690    1.4730    0.8300 C   0  0  0  0  0  0  0  0  0  0  0
   -2.0370    2.1170    1.3010 C   0  0  0  0  0  0  0  0  0  0  0
   -3.0840    1.3940    1.8940 C   0  0  0  0  0  0  0  0  0  0  0
   -2.9810   -0.0060    2.0330 C   0  0  0  0  0  0  0  0  0  0  0
   -1.8520   -0.6700    1.5290 C   0  0  0  0  0  0  0  0  0  0  0
    0.2810   -0.6040    0.4780 N   0  0  0  0  0  0  0  0  0  0  0
    1.3550    1.4260   -0.1980 C   0  0  0  0  0  0  0  0  0  0  0
   -3.9590   -0.7320    2.6470 O   0  0  0  0  0  0  0  0  0  0  0
   -4.1620    2.0800    2.3570 O   0  0  0  0  0  0  0  0  0  0  0
    2.3920    1.9520   -0.7890 C   0  0  0  0  0  0  0  0  0  0  0
    3.3100    2.4060   -1.3110 N   0  0  0  0  0  0  0  0  0  0  0
    0.2000    3.5530    0.3730 N   0  0  0  0  0  0  0  0  0  0  0
    1.2610    4.3950    0.3450 C   0  0  0  0  0  0  0  0  0  0  0
    2.7190    5.9980   -0.7780 C   0  0  0  0  0  0  0  0  0  0  0
    1.5490    5.2110   -0.7680 C   0  0  0  0  0  0  0  0  0  0  0
    2.0880    4.4450    1.4820 C   0  0  0  0  0  0  0  0  0  0  0
    3.2340    5.2520    1.4840 C   0  0  0  0  0  0  0  0  0  0  0
   -5.4010    1.9580    1.6590 C   0  0  0  0  0  0  0  0  0  0  0
   -4.0630   -0.6600    4.0720 C   0  0  0  0  0  0  0  0  0  0  0
    3.5680    6.0060    0.3480 C   0  0  0  0  0  0  0  0  0  0  0
    3.0450    6.7720   -1.8460 O   0  0  0  0  0  0  0  0  0  0  0
    3.2560    6.1420   -3.1100 C   0  0  0  0  0  0  0  0  0  0  0
    4.7140    6.7360    0.3680 O   0  0  0  0  0  0  0  0  0  0  0
    5.8480    6.2150   -0.3310 C   0  0  0  0  0  0  0  0  0  0  0
    2.1200   -0.5430   -0.4220 H   0  0  0  0  0  0  0  0  0  0  0
   -2.1410    3.1290    1.2210 H   0  0  0  0  0  0  0  0  0  0  0
   -1.7850   -1.6850    1.6060 H   0  0  0  0  0  0  0  0  0  0  0
   -0.6370    3.9530    0.6470 H   0  0  0  0  0  0  0  0  0  0  0
    0.9180    5.2290   -1.5710 H   0  0  0  0  0  0  0  0  0  0  0
    1.8600    3.8870    2.3060 H   0  0  0  0  0  0  0  0  0  0  0
    3.8250    5.2860    2.3130 H   0  0  0  0  0  0  0  0  0  0  0
   -6.1550    2.5470    2.1810 H   0  0  0  0  0  0  0  0  0  0  0
   -5.3000    2.3400    0.6410 H   0  0  0  0  0  0  0  0  0  0  0
   -5.7250    0.9170    1.6280 H   0  0  0  0  0  0  0  0  0  0  0
   -4.8660   -1.3180    4.4050 H   0  0  0  0  0  0  0  0  0  0  0
   -3.1310   -0.9870    4.5350 H   0  0  0  0  0  0  0  0  0  0  0
   -4.2900    0.3580    4.3940 H   0  0  0  0  0  0  0  0  0  0  0
    3.5870    6.8920   -3.8290 H   0  0  0  0  0  0  0  0  0  0  0
    4.0280    5.3750   -3.0220 H   0  0  0  0  0  0  0  0  0  0  0
    2.3320    5.6890   -3.4700 H   0  0  0  0  0  0  0  0  0  0  0
    6.7000    6.8700   -0.1510 H   0  0  0  0  0  0  0  0  0  0  0
    6.0960    5.2130    0.0250 H   0  0  0  0  0  0  0  0  0  0  0
    5.6530    6.1780   -1.4040 H   0  0  0  0  0  0  0  0  0  0  0
  1  4  2  0  0  0  0
  1 10  1  0  0  0  0
  1 15  1  0  0  0  0
  2  9  1  0  0  0  0
  2 10  2  0  0  0  0
  2 28  1  0  0  0  0
  3  4  1  0  0  0  0
  3  8  1  0  0  0  0
  3  9  2  0  0  0  0
  4  5  1  0  0  0  0
  5  6  2  0  0  0  0
  5 29  1  0  0  0  0
  6  7  1  0  0  0  0
  6 12  1  0  0  0  0
  7  8  2  0  0  0  0
  7 11  1  0  0  0  0
  8 30  1  0  0  0  0
 10 13  1  0  0  0  0
 11 22  1  0  0  0  0
 12 21  1  0  0  0  0
 13 14  3  0  0  0  0
 15 16  1  0  0  0  0
 15 31  1  0  0  0  0
 16 18  2  0  0  0  0
 16 19  1  0  0  0  0
 17 18  1  0  0  0  0
 17 23  2  0  0  0  0
 17 24  1  0  0  0  0
 18 32  1  0  0  0  0
 19 20  2  0  0  0  0
 19 33  1  0  0  0  0
 20 23  1  0  0  0  0
 20 34  1  0  0  0  0
 21 35  1  0  0  0  0
 21 36  1  0  0  0  0
 21 37  1  0  0  0  0
 22 38  1  0  0  0  0
 22 39  1  0  0  0  0
 22 40  1  0  0  0  0
 23 26  1  0  0  0  0
 24 25  1  0  0  0  0
 25 41  1  0  0  0  0
 25 42  1  0  0  0  0
 25 43  1  0  0  0  0
 26 27  1  0  0  0  0
 27 44  1  0  0  0  0
 27 45  1  0  0  0  0
 27 46  1  0  0  0  0
M  END
> <From>
www.bindingDB.org

> <BindingDB Reactant_set_id>
51022259

> <Ligand InChI>
InChI=1S/C20H19N3O4/c1-24-16-6-5-13(7-17(16)25-2)23-20-12(10-21)11-22-15-9-19(27-4)18(26-3)8-14(15)20/h5-9,11H,1-4H3,(H,22,23)

> <Ligand InChI Key>
PPNMPEHEXLGGID-UHFFFAOYSA-N

> <BindingDB MonomerID>
4448

> <BindingDB Ligand Name>
4-(3,4-Dimethoxyphenylamino)-6,7-dimethoxyquinoline-3-carbonitrile::4-Anilino-3-cyanoquinoline deriv. 7e::4-[(3,4-dimethoxyphenyl)amino]-6,7-dimethoxyquinoline-3-carbonitrile::6,7-dialkoxyquinoline-3-carbonitrile deriv. 11

> <Target Name Assigned by Curator or DataSource>
Epidermal growth factor receptor

> <Target Source Organism According to Curator or DataSource>
Homo sapiens

> <Ki (nM)>


> <IC50 (nM)>
 50118.72

> <Kd (nM)>


> <EC50 (nM)>


> <kon (M-1-s-1)>


> <koff (s-1)>


> <pH>


> <Temp C>


> <Curation/DataSource>
ChEMBL

> <Article DOI>
10.1016/j.ejmech.2007.06.006

> <PMID>
17689836

> <PubChem AID>


> <Patent Number>


> <Authors>
San Juan, AA

> <Institution>
Korea Institute of Science and Technology

> <Link to Ligand in BindingDB>
http://www.bindingdb.org/bind/chemsearch/marvin/MolStructure.jsp?monomerid=4448

> <Link to Ligand-Target Pair in BindingDB>
http://www.bindingdb.org/jsp/dbsearch/PrimarySearch_ki.jsp?energyterm=kJ/mole&tag=pol&polymerid=520&target=Epidermal+growth+factor+receptor&column=ki&startPg=0&Increment=50&submit=Search

> <Link to Ligand-Target Pair in BindingDB>
http://www.bindingdb.org/jsp/dbsearch/PrimarySearch_ki.jsp?energyterm=kJ/mole&tag=r21&monomerid=4448&enzyme=Epidermal+growth+factor+receptor&column=ki&startPg=0&Increment=50&submit=Search

> <Ligand HET ID in PDB>


> <PDB ID(s) for Ligand-Target Complex>


> <PubChem CID>
5328843

> <PubChem SID>
8034117

> <ChEBI ID of Ligand>


> <ChEMBL ID of Ligand>


> <DrugBank ID of Ligand>


> <IUPHAR_GRAC ID of Ligand>


> <KEGG ID of Ligand>


> <ZINC ID of Ligand>
ZINC03832365

> <Number of Protein Chains in Target (bigger than 1 a multichain complex)>
1

> <BindingDB Target Chain Sequence>
MRPSGTAGAALLALLAALCPASRALEEKKVCQGTSNKLTQLGTFEDHFLSLQRMFNNCEVVLGNLEITYVQRNYDLSFLKTIQEVAGYVLIALNTVERIPLENLQIIRGNMYYENSYALAVLSNYDANKTGLKELPMRNLQEILHGAVRFSNNPALCNVESIQWRDIVSSDFLSNMSMDFQNHLGSCQKCDPSCPNGSCWGAGEENCQKLTKIICAQQCSGRCRGKSPSDCCHNQCAAGCTGPRESDCLVCRKFRDEATCKDTCPPLMLYNPTTYQMDVNPEGKYSFGATCVKKCPRNYVVTDHGSCVRACGADSYEMEEDGVRKCKKCEGPCRKVCNGIGIGEFKDSLSINATNIKHFKNCTSISGDLHILPVAFRGDSFTHTPPLDPQELDILKTVKEITGFLLIQAWPENRTDLHAFENLEIIRGRTKQHGQFSLAVVSLNITSLGLRSLKEISDGDVIISGNKNLCYANTINWKKLFGTSGQKTKIISNRGENSCKATGQVCHALCSPEGCWGPEPRDCVSCRNVSRGRECVDKCNLLEGEPREFVENSECIQCHPECLPQAMNITCTGRGPDNCIQCAHYIDGPHCVKTCPAGVMGENNTLVWKYADAGHVCHLCHPNCTYGCTGPGLEGCPTNGPKIPSIATGMVGALLLLLVVALGIGLFMRRRHIVRKRTLRRLLQERELVEPLTPSGEAPNQALLRILKETEFKKIKVLGSGAFGTVYKGLWIPEGEKVKIPVAIKELREATSPKANKEILDEAYVMASVDNPHVCRLLGICLTSTVQLITQLMPFGCLLDYVREHKDNIGSQYLLNWCVQIAKGMNYLEDRRLVHRDLAARNVLVKTPQHVKITDFGLAKLLGAEEKEYHAEGGKVPIKWMALESILHRIYTHQSDVWSYGVTVWELMTFGSKPYDGIPASEISSILEKGERLPQPPICTIDVYMIMVKCWMIDADSRPKFRELIIEFSKMARDPQRYLVIQGDERMHLPSPTDSNFYRALMDEEDMDDVVDADEYLIPQQGFFSSPSTSRTPLLSSLSATSNNSTVACIDRNGLQSCPIKEDSFLQRYSSDPTGALTEDSIDDTFLPVPEYINQSVPKRPAGSVQNPVYHNQPLNPAPSRDPHYQDPHSTAVGNPEYLNTVQPTCVNSTFDSPAHWAQKGSHQISLDNPDYQQDFFPKEAKPNGIFKGSTAENAEYLRVAPQSSEFIGA

> <PDB ID(s) of Target Chain>
1IVO,1M14,1M17,1MOX,1XKK,1Z9I,2GS2,2GS6,2ITW,2ITX,2ITY,2J5E,2J5F,2J6M,2N5S,2RF9,2RGP,3B2V,3BEL,3GOP,3POZ,3QWQ,3VJO,3W2O,3W2P,3W2Q,3W2R,3W2S,3W32,3W33,4G5J,4I23,4JQ7,4JQ8,4JR3,4JRV,4KRO,4LI5,4RJ4,4RJ5,4RJ6,4RJ7,4RJ8,4TKS,4UIP,4UV7,4WKQ,4WRG,4ZAU,5C8K,5C8M,5C8N,5CAL,5CAN,5CAO,5CAP,5CAQ,5CAS,5CAU,5CAV,5EDP,5EDQ,5EDR,5EM5,5EM6,5EM7,5EM8,5FED,5GNK,5HCX,5HCY,5HCZ,5HIB,5HIC,5UGB,5WB7,5WB8,5Y25,6D8E,6JZ0,6S89,6S8A,6VH4,6VHN,6VHP

> <UniProt (SwissProt) Recommended Name of Target Chain>
Epidermal growth factor receptor

> <UniProt (SwissProt) Entry Name of Target Chain>
EGFR_HUMAN

> <UniProt (SwissProt) Primary ID of Target Chain>
P00533

> <UniProt (SwissProt) Secondary ID(s) of Target Chain>
O00688,O00732,P06268,Q14225,Q68GS5,Q92795,Q9BZS2,Q9GZX1,Q9H2C9,Q9H3C9,Q9UMD7,Q9UMD8,Q9UMG5

> <UniProt (SwissProt) Alternative ID(s) of Target Chain>


> <UniProt (TrEMBL) Submitted Name of Target Chain>


> <UniProt (TrEMBL) Entry Name of Target Chain>


> <UniProt (TrEMBL) Primary ID of Target Chain>


> <UniProt (TrEMBL) Secondary ID(s) of Target Chain>


> <UniProt (TrEMBL) Alternative ID(s) of Target Chain>


$$$$
6_7-Dimethoxyquinoline

Vconf v2.0 Academic SN VC001-00000579
 37 39  0  0  0  0  0  0  0  0999 V2000
   -1.3830    2.7400    1.3040 C   0  0  0  0  0  0  0  0  0  0  0
   -2.5580    2.4590    0.5850 C   0  0  0  0  0  0  0  0  0  0  0
   -2.9660    1.1200    0.3970 C   0  0  0  0  0  0  0  0  0  0  0
   -2.1700    0.0760    0.8960 C   0  0  0  0  0  0  0  0  0  0  0
   -0.5800    1.7000    1.8230 C   0  0  0  0  0  0  0  0  0  0  0
   -0.9900    0.3570    1.6050 C   0  0  0  0  0  0  0  0  0  0  0
    0.6160    1.9370    2.5470 C   0  0  0  0  0  0  0  0  0  0  0
    0.9030   -0.4740    2.7750 C   0  0  0  0  0  0  0  0  0  0  0
   -0.2430   -0.6670    2.0840 N   0  0  0  0  0  0  0  0  0  0  0
    1.0210    3.2290    2.7490 N   0  0  0  0  0  0  0  0  0  0  0
    2.1290    3.6490    3.4150 C   0  0  0  0  0  0  0  0  0  0  0
    4.2950    4.7750    3.4510 C   0  0  0  0  0  0  0  0  0  0  0
    3.1700    4.3210    2.7350 C   0  0  0  0  0  0  0  0  0  0  0
    2.2170    3.4650    4.8100 C   0  0  0  0  0  0  0  0  0  0  0
    3.3400    3.9190    5.5200 C   0  0  0  0  0  0  0  0  0  0  0
    4.3840    4.5740    4.8410 C   0  0  0  0  0  0  0  0  0  0  0
    3.1060    4.5940    1.0630 Cl  0  0  0  0  0  0  0  0  0  0  0
    5.7380    5.1220    5.6950 Cl  0  0  0  0  0  0  0  0  0  0  0
   -4.1060    0.7880   -0.2680 O   0  0  0  0  0  0  0  0  0  0  0
   -5.3670    1.2340    0.2360 C   0  0  0  0  0  0  0  0  0  0  0
   -3.2690    3.5110    0.0970 O   0  0  0  0  0  0  0  0  0  0  0
   -3.3900    3.6670   -1.3190 C   0  0  0  0  0  0  0  0  0  0  0
    1.3580    0.8300    3.0190 C   0  0  0  0  0  0  0  0  0  0  0
   -1.1160    3.7160    1.4360 H   0  0  0  0  0  0  0  0  0  0  0
   -2.4570   -0.8930    0.7500 H   0  0  0  0  0  0  0  0  0  0  0
    1.4360   -1.2750    3.1160 H   0  0  0  0  0  0  0  0  0  0  0
    0.4850    3.9250    2.3410 H   0  0  0  0  0  0  0  0  0  0  0
    5.0520    5.2560    2.9600 H   0  0  0  0  0  0  0  0  0  0  0
    1.4620    2.9970    5.3120 H   0  0  0  0  0  0  0  0  0  0  0
    3.3890    3.7720    6.5290 H   0  0  0  0  0  0  0  0  0  0  0
   -6.1590    0.8310   -0.3950 H   0  0  0  0  0  0  0  0  0  0  0
   -5.5130    0.8740    1.2560 H   0  0  0  0  0  0  0  0  0  0  0
   -5.4310    2.3230    0.2240 H   0  0  0  0  0  0  0  0  0  0  0
   -3.9600    4.5720   -1.5240 H   0  0  0  0  0  0  0  0  0  0  0
   -2.4020    3.7620   -1.7720 H   0  0  0  0  0  0  0  0  0  0  0
   -3.9110    2.8160   -1.7610 H   0  0  0  0  0  0  0  0  0  0  0
    2.2280    0.9620    3.5330 H   0  0  0  0  0  0  0  0  0  0  0
  1  2  1  0  0  0  0
  1  5  2  0  0  0  0
  1 24  1  0  0  0  0
  2  3  2  0  0  0  0
  2 21  1  0  0  0  0
  3  4  1  0  0  0  0
  3 19  1  0  0  0  0
  4  6  2  0  0  0  0
  4 25  1  0  0  0  0
  5  6  1  0  0  0  0
  5  7  1  0  0  0  0
  6  9  1  0  0  0  0
  7 10  1  0  0  0  0
  7 23  2  0  0  0  0
  8  9  2  0  0  0  0
  8 23  1  0  0  0  0
  8 26  1  0  0  0  0
 10 11  1  0  0  0  0
 10 27  1  0  0  0  0
 11 13  2  0  0  0  0
 11 14  1  0  0  0  0
 12 13  1  0  0  0  0
 12 16  2  0  0  0  0
 12 28  1  0  0  0  0
 13 17  1  0  0  0  0
 14 15  2  0  0  0  0
 14 29  1  0  0  0  0
 15 16  1  0  0  0  0
 15 30  1  0  0  0  0
 16 18  1  0  0  0  0
 19 20  1  0  0  0  0
 20 31  1  0  0  0  0
 20 32  1  0  0  0  0
 20 33  1  0  0  0  0
 21 22  1  0  0  0  0
 22 34  1  0  0  0  0
 22 35  1  0  0  0  0
 22 36  1  0  0  0  0
 23 37  1  0  0  0  0
M  END
> <From>
www.bindingDB.org

> <BindingDB Reactant_set_id>
6681

> <Ligand InChI>
InChI=1S/C17H14Cl2N2O2/c1-22-16-8-11-13(5-6-20-15(11)9-17(16)23-2)21-14-4-3-10(18)7-12(14)19/h3-9H,1-2H3,(H,20,21)

> <Ligand InChI Key>
AMKPAGTWVTZQPM-UHFFFAOYSA-N

> <BindingDB MonomerID>
4494

> <BindingDB Ligand Name>
(2,4-Dichlorophenyl)(6,7-dimethoxyquinolin-4-yl)-amine::6,7-Dimethoxyquinoline deriv. 6::N-(2,4-dichlorophenyl)-6,7-dimethoxyquinolin-4-amine::quinazoline deriv. 4a

> <Target Name Assigned by Curator or DataSource>
Proto-oncogene tyrosine-protein kinase Src

> <Target Source Organism According to Curator or DataSource>


> <Ki (nM)>


> <IC50 (nM)>
 84

> <Kd (nM)>


> <EC50 (nM)>


> <kon (M-1-s-1)>


> <koff (s-1)>


> <pH>
7.5

> <Temp C>
30.00

> <Curation/DataSource>
Curated from the literature by BindingDB

> <Article DOI>
10.1021/jm000420z

> <PMID>
11262092

> <PubChem AID>


> <Patent Number>


> <Authors>
Boschelli, DH; Wang, YD; Ye, F; Wu, B; Zhang, N; Dutia, M; Powell, DW; Wissner, A; Arndt, K; Weber, JM; Boschelli, F

> <Institution>
Wyeth-Ayerst Research

> <Link to Ligand in BindingDB>
http://www.bindingdb.org/bind/chemsearch/marvin/MolStructure.jsp?monomerid=4494

> <Link to Ligand-Target Pair in BindingDB>
http://www.bindingdb.org/jsp/dbsearch/PrimarySearch_ki.jsp?energyterm=kJ/mole&tag=pol&polymerid=13&target=Proto-oncogene+tyrosine-protein+kinase+Src&column=ki&startPg=0&Increment=50&submit=Search

> <Link to Ligand-Target Pair in BindingDB>
http://www.bindingdb.org/jsp/dbsearch/PrimarySearch_ki.jsp?energyterm=kJ/mole&tag=r21&monomerid=4494&enzyme=Proto-oncogene+tyrosine-protein+kinase+Src&column=ki&startPg=0&Increment=50&submit=Search

> <Ligand HET ID in PDB>


> <PDB ID(s) for Ligand-Target Complex>


> <PubChem CID>
5328888

> <PubChem SID>
8034163

> <ChEBI ID of Ligand>


> <ChEMBL ID of Ligand>


> <DrugBank ID of Ligand>


> <IUPHAR_GRAC ID of Ligand>


> <KEGG ID of Ligand>


> <ZINC ID of Ligand>
ZINC13470109

> <Number of Protein Chains in Target (bigger than 1 a multichain complex)>
1

> <BindingDB Target Chain Sequence>
MGSNKSKPKDASQRRRSLEPAENVHGAGGGAFPASQTPSKPASADGHRGPSAAFAPAAAEPKLFGGFNSSDTVTSPQRAGPLAGGVTTFVALYDYESRTETDLSFKKGERLQIVNNTEGDWWLAHSLSTGQTGYIPSNYVAPSDSIQAEEWYFGKITRRESERLLLNAENPRGTFLVRESETTKGAYCLSVSDFDNAKGLNVKHYKIRKLDSGGFYITSRTQFNSLQQLVAYYSKHADGLCHRLTTVCPTSKPQTQGLAKDAWEIPRESLRLEVKLGQGCFGEVWMGTWNGTTRVAIKTLKPGTMSPEAFLQEAQVMKKLRHEKLVQLYAVVSEEPIYIVTEYMSKGSLLDFLKGETGKYLRLPQLVDMAAQIASGMAYVERMNYVHRDLRAANILVGENLVCKVADFGLARLIEDNEYTARQGAKFPIKWTAPEAALYGRFTIKSDVWSFGILLTELTTKGRVPYPGMVNREVLDQVERGYRMPCPPECPESLHDLMCQCWRKEPEERPTFEYLQAFLEDYFTSTEPQYQPGENL

> <PDB ID(s) of Target Chain>
1FMK,1HCS,1HCT,1O41,1O42,1O43,1O44,1O45,1O46,1O47,1O48,1O49,1O4A,1O4B,1O4C,1O4D,1O4E,1O4F,1O4G,1O4H,1O4I,1O4J,1O4K,1O4L,1O4M,1O4N,1O4O,1O4P,1O4Q,1O4R,1SHA,1SHB,1SHD,1SPR,1SPS,1Y57,1YI6,2BDF,2BDJ,2H8H,2PTK,2SRC,4MXO,4MXX,4OML,4OMO,5OB0,5OB1,6ATE,6E6E

> <UniProt (SwissProt) Recommended Name of Target Chain>
Proto-oncogene tyrosine-protein kinase Src

> <UniProt (SwissProt) Entry Name of Target Chain>
SRC_HUMAN

> <UniProt (SwissProt) Primary ID of Target Chain>
P12931

> <UniProt (SwissProt) Secondary ID(s) of Target Chain>
E1P5V4,Q76P87,Q86VB9,Q9H5A8

> <UniProt (SwissProt) Alternative ID(s) of Target Chain>


> <UniProt (TrEMBL) Submitted Name of Target Chain>


> <UniProt (TrEMBL) Entry Name of Target Chain>


> <UniProt (TrEMBL) Primary ID of Target Chain>


> <UniProt (TrEMBL) Secondary ID(s) of Target Chain>


> <UniProt (TrEMBL) Alternative ID(s) of Target Chain>


$$$$
